<?xml version="1.0" encoding="UTF-8"?>

<!-- generated on 2024-03-09 13:04:39 by Eclipse SUMO polyconvert Version 1.17.0
<configuration xmlns:xsi="http://www.w3.org/2001/XMLSchema-instance" xsi:noNamespaceSchemaLocation="http://sumo.dlr.de/xsd/polyconvertConfiguration.xsd">

    <input>
        <net-file value="osm.net.xml.gz"/>
        <osm-files value="osm_bbox.osm.xml.gz"/>
        <osm.keep-full-type value="true"/>
        <type-file value="${SUMO_HOME}/data/typemap/osmPolyconvert.typ.xml"/>
    </input>

    <output>
        <output-file value="osm.poly.xml.gz"/>
    </output>

    <report>
        <verbose value="true"/>
    </report>

</configuration>
-->

<additional xmlns:xsi="http://www.w3.org/2001/XMLSchema-instance" xsi:noNamespaceSchemaLocation="http://sumo.dlr.de/xsd/additional_file.xsd">
    <location netOffset="-777986.69,-988327.26" convBoundary="-1254.71,-0.00,2663.31,9289.93" origBoundary="125.517013,8.932285,125.552210,9.016377" projParameter="+proj=utm +zone=51 +ellps=WGS84 +datum=WGS84 +units=m +no_defs"/>

    <poly id="1000675588" type="man_made.quay" color="255,230,230" fill="1" layer="-1.00" shape="1670.167594,2243.058974 1663.392763,2240.964814 1660.231182,2239.880563 1644.002121,2300.170232 1624.882233,2371.152441 1619.510019,2369.909044 1609.748960,2408.231821 1616.978714,2409.775790 1627.163845,2373.779943 1633.832444,2375.320035 1653.513676,2302.725973 1670.167594,2243.058974"/>
    <poly id="1057041950" type="amenity.fuel" color="237,199,199" fill="1" layer="-1.00" shape="1675.075794,1983.457929 1694.186505,1983.877727 1685.142943,1999.574158 1674.690076,1996.281525 1675.075794,1983.457929"/>
    <poly id="105884667" type="natural.water" color="181,209,209" fill="1" layer="-4.00" shape="-1053.205231,9289.925635 -858.594617,9147.536007 -798.740966,9110.189991 -742.383110,9074.059360 -752.822906,9053.215475 -755.800421,9028.726868 -753.873157,8990.173365 -744.869349,8959.238182 -685.624539,8887.415822 -656.416707,8851.009333 -600.005519,8805.627521 -485.588918,8684.796199 -419.925853,8620.455019 -380.769152,8561.342370 -122.339874,7992.015977 -119.626742,7983.092942 -115.629477,7971.434272 -112.203770,7945.362995 -112.828766,7938.685543 -113.303257,7932.518193 -122.850742,7820.691089 -105.874947,7715.620721 -66.467954,7594.935419 -22.973019,7522.760939 43.188557,7372.258963 155.417004,7159.648706 164.887730,7136.087006 211.748219,7019.603082 244.188097,6888.312015 269.250275,6616.180921 253.265676,6349.875049 128.436621,5829.349408 99.155320,5683.079864 44.059379,5535.492555 13.628726,5428.147450 -7.694094,5281.213744 -3.256991,5231.289918 32.514920,5144.818960 100.876307,5034.558195 350.368894,4885.839668 477.251177,4782.689209 617.345668,4684.765073 755.827368,4629.292660 906.023785,4577.586740 1001.554759,4515.133978 1042.217724,4474.379989 1142.136150,4374.209468 1268.815692,4272.309611 1285.178573,4248.275368 1293.215378,4236.489647 1318.524834,4210.724494 1355.181050,4195.739293 1360.742082,4193.509101 1400.354579,4175.866254 1429.186469,4159.454703 1455.202598,4149.254208 1486.490969,4132.450218 1501.195250,4130.283321 1515.641295,4122.503844 1532.495103,4110.236905 1551.078093,4089.781541 1585.333447,4044.944140 1652.012242,3971.967354 1684.369423,3920.023099 1771.660567,3779.914774 1778.014056,3769.722096 1778.566442,3731.269207 1779.323487,3679.150386 1790.868397,3589.822621 1801.086347,3344.102403 1801.052882,3318.737342 1800.740610,3087.253458 1799.290877,3040.752310 1794.690021,2875.583514 1784.336019,2815.098889 1782.726073,2758.337841 1788.474559,2655.878068 1819.291635,2483.096979 1864.888170,2403.964720 1866.192732,2398.307605 1874.543981,2376.121353 1904.989910,2295.202143 2075.949371,1814.264715 2132.180582,1707.528194 2209.710084,1590.469967 2233.204266,1536.306123 2234.866014,1472.684082 2237.845412,1423.778808 2213.763159,1386.405914 2207.128567,1360.840198 2182.711812,1266.825670 2176.743317,1261.085033 2163.746022,1248.578294 2086.472573,1174.229041 1889.137162,1010.151717 1868.915559,996.842679 1615.784760,1101.046956 1679.710819,1157.906076 1712.100783,1177.883714 1737.749405,1187.699900 1780.600982,1206.543594 1857.940180,1223.644684 1870.471734,1236.679278 1880.959503,1255.653626 1929.564900,1341.534946 1936.004007,1403.364720 1943.975759,1445.639209 1955.054466,1509.636947 1961.811379,1555.721059 1966.099976,1618.211067 1973.299848,1687.748557 1970.804328,1706.500395 1960.908157,1729.306791 1939.380877,1769.617711 1914.847052,1816.658515 1886.459781,1867.191878 1852.473948,1917.387731 1825.924373,1956.789662 1750.690089,2071.573191 1727.096251,2105.251966 1698.757176,2145.681810 1682.473426,2172.483386 1673.707331,2200.576388 1663.392763,2240.964814 1670.167594,2243.058974 1653.513676,2302.725973 1633.832444,2375.320035 1627.163845,2373.779943 1617.959394,2406.396171 1616.978714,2409.775790 1595.446485,2484.315846 1577.212800,2799.589575 1570.617862,2956.104005 1559.651403,3031.901190 1557.655931,3102.470543 1566.228866,3369.568351 1555.367725,3411.037466 1554.869832,3483.011585 1540.102188,3596.099230 1536.687855,3636.336120 1535.166620,3654.231452 1506.300918,3731.144228 1487.629301,3767.579290 1466.036081,3804.846273 1444.312546,3841.868888 1417.689377,3879.355611 1405.453345,3890.547890 1216.255440,4063.583440 1165.479132,4114.017207 1123.652660,4157.485553 1082.502538,4192.260222 1033.164741,4220.869556 1007.965529,4235.491505 784.903771,4328.824838 535.157389,4438.619141 226.448538,4605.753486 -62.861381,4785.993056 -126.874540,4830.482383 -172.584034,4872.541421 -230.525168,4946.066959 -256.199152,5039.402392 -269.472490,5103.906344 -281.697817,5177.602723 -275.900200,5371.085561 -262.173515,5464.437739 -245.611113,5518.268756 -190.526772,5672.473070 -68.460971,5967.385699 -2.059784,6173.072871 -2.217999,6403.322547 -11.036759,6633.755945 -41.277070,6776.471820 -78.224464,6939.293573 -148.581732,7034.589015 -212.355378,7150.037829 -309.722759,7353.820394 -359.989100,7463.486057 -387.036147,7570.888318 -454.853291,7818.122649 -487.611335,7954.402294 -523.384933,8084.463854 -535.948096,8135.338533 -548.242031,8167.922100 -597.882823,8230.127642 -624.971233,8257.485359 -661.719695,8280.117455 -720.201211,8344.862716 -770.264543,8399.805794 -926.151219,8529.304856 -1023.167053,8615.796013 -1077.538428,8641.427660 -1124.266697,8656.344320 -1254.712711,8659.263950 -1188.934211,8705.742358 -1155.016244,8750.529609 -1121.095516,8796.501045 -1080.933524,8877.109376 -1061.915519,8970.276403 -1040.609958,9106.629622 -1027.798516,9217.537802 -1030.313287,9239.210792 -1036.945456,9259.693412 -1043.239088,9274.158194 -1053.205231,9289.925635"/>
    <poly id="1125305499" type="amenity.school" color="237,199,199" fill="1" layer="-2.00" shape="1368.502572,1992.517896 1370.496748,2024.038380 1321.868755,2025.971389 1322.437613,1994.568207 1368.502572,1992.517896"/>
    <poly id="1125305513" type="amenity.school" color="237,199,199" fill="1" layer="-2.00" shape="1529.557696,2396.566727 1531.635987,2347.400882 1514.403271,2345.942755 1512.487219,2395.519182 1529.557696,2396.566727"/>
    <poly id="221455427" type="building.yes" color="255,230,230" fill="1" layer="-1.00" shape="1485.150096,1672.700385 1481.514008,1625.575644 1485.642637,1625.261078 1485.248798,1620.145569 1489.663668,1619.810846 1489.340818,1615.570092 1515.653994,1613.560546 1516.553152,1625.175667 1521.386381,1624.810635 1523.759852,1655.581236 1521.227628,1655.774020 1517.612275,1670.998899 1485.150096,1672.700385"/>
    <poly id="221455427#1" type="leisure.sports_centre" color="207,245,201" fill="1" layer="-2.00" shape="1485.150096,1672.700385 1481.514008,1625.575644 1485.642637,1625.261078 1485.248798,1620.145569 1489.663668,1619.810846 1489.340818,1615.570092 1515.653994,1613.560546 1516.553152,1625.175667 1521.386381,1624.810635 1523.759852,1655.581236 1521.227628,1655.774020 1517.612275,1670.998899 1485.150096,1672.700385"/>
    <poly id="221455427#2" type="sport.basketball" color="79,230,125" fill="1" layer="-2.00" shape="1485.150096,1672.700385 1481.514008,1625.575644 1485.642637,1625.261078 1485.248798,1620.145569 1489.663668,1619.810846 1489.340818,1615.570092 1515.653994,1613.560546 1516.553152,1625.175667 1521.386381,1624.810635 1523.759852,1655.581236 1521.227628,1655.774020 1517.612275,1670.998899 1485.150096,1672.700385"/>
    <poly id="221455428" type="leisure.sports_centre" color="207,245,201" fill="1" layer="-2.00" shape="1517.612275,1670.998899 1521.227628,1655.774020 1523.759852,1655.581236 1521.386381,1624.810635 1516.553152,1625.175667 1515.653994,1613.560546 1550.358394,1610.646155 1554.965686,1666.907617 1520.518842,1670.775501 1517.612275,1670.998899"/>
    <poly id="221456330" type="leisure.park" color="207,245,201" fill="1" layer="-2.00" shape="1646.735283,1743.779601 1641.173556,1679.156168 1701.851547,1674.008801 1707.413183,1738.632269 1646.735283,1743.779601"/>
    <poly id="221456331" type="amenity.place_of_worship" color="237,199,199" fill="1" layer="-1.00" shape="1574.647368,1726.482514 1566.995842,1727.038339 1566.031224,1713.751696 1573.308410,1713.226484 1572.534057,1702.663550 1584.699331,1701.795830 1584.960962,1705.338966 1585.453126,1712.148357 1611.644309,1710.270847 1613.229632,1710.160063 1617.721445,1709.836954 1618.254253,1717.133560 1618.737547,1723.633025 1608.983308,1724.329253 1587.151828,1725.893805 1587.594629,1731.883922 1587.856183,1735.438125 1575.371592,1736.336836 1574.647368,1726.482514"/>
    <poly id="221456331#1" type="building.cathedral" color="255,230,230" fill="1" layer="-1.00" shape="1574.647368,1726.482514 1566.995842,1727.038339 1566.031224,1713.751696 1573.308410,1713.226484 1572.534057,1702.663550 1584.699331,1701.795830 1584.960962,1705.338966 1585.453126,1712.148357 1611.644309,1710.270847 1613.229632,1710.160063 1617.721445,1709.836954 1618.254253,1717.133560 1618.737547,1723.633025 1608.983308,1724.329253 1587.151828,1725.893805 1587.594629,1731.883922 1587.856183,1735.438125 1575.371592,1736.336836 1574.647368,1726.482514"/>
    <poly id="227493953" type="landuse.cemetery" color="194,194,130" fill="1" layer="-3.00" shape="1176.960462,1606.321213 1160.445569,1604.447749 1158.495066,1588.896767 1144.897844,1589.976082 1131.020640,1590.168141 1095.919034,1588.465372 1087.411829,1711.556009 1102.430221,1713.419138 1119.562377,1713.537254 1168.289371,1710.055254 1176.960462,1606.321213"/>
    <poly id="227494518" type="amenity.bank" color="237,199,199" fill="1" layer="-1.00" shape="1323.934566,1364.521951 1343.818885,1362.899508 1345.596477,1384.369969 1325.712168,1385.992409 1323.934566,1364.521951"/>
    <poly id="227494518#1" type="building.yes" color="255,230,230" fill="1" layer="-1.00" shape="1323.934566,1364.521951 1343.818885,1362.899508 1345.596477,1384.369969 1325.712168,1385.992409 1323.934566,1364.521951"/>
    <poly id="227495609" type="amenity.school" color="237,199,199" fill="1" layer="-2.00" shape="1452.539272,1276.588313 1463.664674,1274.938681 1522.266010,1266.224157 1522.611676,1259.188156 1544.747744,1258.167867 1546.187137,1309.493846 1680.514164,1301.324441 1683.466836,1303.989762 1684.008677,1308.386968 1686.318895,1369.026079 1469.553902,1376.692822 1464.540385,1376.071692 1463.001196,1374.279341 1461.033415,1374.000163 1454.363145,1300.914306 1453.816343,1287.663764 1452.539272,1276.588313"/>
    <poly id="227736795" type="amenity.college" color="237,199,199" fill="1" layer="-2.00" shape="1369.984705,1741.105196 1380.409740,1740.468876 1383.197488,1786.160129 1372.772540,1786.785379 1369.984705,1741.105196"/>
    <poly id="227736795#1" type="building.yes" color="255,230,230" fill="1" layer="-1.00" shape="1369.984705,1741.105196 1380.409740,1740.468876 1383.197488,1786.160129 1372.772540,1786.785379 1369.984705,1741.105196"/>
    <poly id="227736934" type="amenity.hospital" color="237,199,199" fill="1" layer="-1.00" shape="1411.309912,1650.987026 1408.990055,1615.624171 1424.876001,1614.560740 1467.249565,1611.721342 1469.576248,1646.088264 1411.309912,1650.987026"/>
    <poly id="227737222" type="amenity.fast_food" color="237,199,199" fill="1" layer="-1.00" shape="1433.107105,1679.899662 1431.030368,1652.362593 1412.049898,1653.780926 1414.126647,1681.317990 1433.107105,1679.899662"/>
    <poly id="227737222#1" type="building.yes" color="255,230,230" fill="1" layer="-1.00" shape="1433.107105,1679.899662 1431.030368,1652.362593 1412.049898,1653.780926 1414.126647,1681.317990 1433.107105,1679.899662"/>
    <poly id="227737576" type="building.hotel" color="255,230,230" fill="1" layer="-1.00" shape="1407.113508,1611.693631 1405.701465,1588.289012 1439.476298,1586.131706 1441.065064,1609.437950 1407.113508,1611.693631"/>
    <poly id="227737576#1" type="tourism.hotel" color="207,245,201" fill="1" layer="-2.00" shape="1407.113508,1611.693631 1405.701465,1588.289012 1439.476298,1586.131706 1441.065064,1609.437950 1407.113508,1611.693631"/>
    <poly id="227737583" type="amenity.school" color="237,199,199" fill="1" layer="-2.00" shape="1401.658790,1520.334092 1443.285827,1520.444283 1443.697818,1534.092295 1459.579064,1533.714968 1461.867259,1565.691224 1437.973504,1566.312047 1439.476298,1586.131706 1405.701465,1588.289012 1401.658790,1520.334092"/>
    <poly id="227738011" type="building.yes" color="255,230,230" fill="1" layer="-1.00" shape="1355.253314,1412.158498 1342.154369,1412.776404 1341.280916,1394.233770 1354.368864,1393.615787 1355.253314,1412.158498"/>
    <poly id="227738011#1" type="tourism.hotel" color="207,245,201" fill="1" layer="-2.00" shape="1355.253314,1412.158498 1342.154369,1412.776404 1341.280916,1394.233770 1354.368864,1393.615787 1355.253314,1412.158498"/>
    <poly id="227738826" type="amenity.kindergarten" color="237,199,199" fill="1" layer="-2.00" shape="1570.546823,1668.553473 1564.928999,1607.249699 1629.685791,1602.639426 1632.907926,1661.879358 1570.546823,1668.553473"/>
    <poly id="227738838" type="amenity.police" color="237,199,199" fill="1" layer="-1.00" shape="1632.907926,1661.879358 1638.759503,1660.647110 1646.790432,1660.923914 1686.717393,1655.445056 1704.259602,1653.563180 1702.040087,1597.340271 1629.685791,1602.639426 1632.907926,1661.879358"/>
    <poly id="227738838#1" type="landuse.institutional" color="194,194,130" fill="1" layer="-3.00" shape="1632.907926,1661.879358 1638.759503,1660.647110 1646.790432,1660.923914 1686.717393,1655.445056 1704.259602,1653.563180 1702.040087,1597.340271 1629.685791,1602.639426 1632.907926,1661.879358"/>
    <poly id="227738861" type="amenity.school" color="237,199,199" fill="1" layer="-2.00" shape="1564.928999,1607.249699 1629.685791,1602.639426 1702.040087,1597.340271 1689.595010,1377.437232 1551.157825,1384.869897 1564.928999,1607.249699"/>
    <poly id="227739000" type="building.yes" color="255,230,230" fill="1" layer="-1.00" shape="1701.516971,1405.440755 1699.760970,1379.278108 1720.854200,1377.885530 1720.983181,1379.922686 1722.599108,1404.059171 1701.516971,1405.440755"/>
    <poly id="227739169" type="amenity.hospital" color="237,199,199" fill="1" layer="-1.00" shape="1871.133151,1734.839123 1906.223450,1739.774001 1920.348060,1703.805355 1914.453632,1701.684064 1918.358464,1692.359719 1893.956141,1678.999525 1870.491976,1677.963045 1871.133151,1734.839123"/>
    <poly id="227739191" type="amenity.college" color="237,199,199" fill="1" layer="-2.00" shape="1876.837378,1506.595177 1874.105705,1459.221996 1876.567349,1458.099142 1903.564077,1455.928537 1905.412602,1505.298693 1876.837378,1506.595177"/>
    <poly id="227739262" type="amenity.college" color="237,199,199" fill="1" layer="-2.00" shape="1864.513598,1609.983402 1863.218852,1590.342172 1881.284463,1589.161179 1882.579124,1608.813478 1864.513598,1609.983402"/>
    <poly id="227739345" type="building.yes" color="255,230,230" fill="1" layer="-1.00" shape="1789.961441,1557.521203 1787.788371,1520.067649 1799.732354,1519.386581 1800.008257,1524.047555 1807.548885,1523.623795 1809.435031,1556.416305 1789.961441,1557.521203"/>
    <poly id="227739376" type="building.yes" color="255,230,230" fill="1" layer="-1.00" shape="1730.738779,1592.492138 1729.630712,1574.490087 1774.787755,1571.747689 1775.895726,1589.760812 1730.738779,1592.492138"/>
    <poly id="227739388" type="building.yes" color="255,230,230" fill="1" layer="-1.00" shape="1742.924976,1752.633512 1783.376667,1750.832532 1789.534919,1756.176028 1791.715480,1781.389906 1773.722795,1781.586483 1761.590821,1785.597305 1756.320220,1785.560880 1744.766713,1785.481037 1742.924976,1752.633512"/>
    <poly id="227739388#1" type="shop.supermarket" color="237,199,255" fill="1" layer="-1.00" shape="1742.924976,1752.633512 1783.376667,1750.832532 1789.534919,1756.176028 1791.715480,1781.389906 1773.722795,1781.586483 1761.590821,1785.597305 1756.320220,1785.560880 1744.766713,1785.481037 1742.924976,1752.633512"/>
    <poly id="227739646" type="building.yes" color="255,230,230" fill="1" layer="-1.00" shape="1609.371743,2308.374751 1618.854697,2276.856043 1638.236487,2282.611858 1628.753517,2314.130565 1625.744685,2313.235504 1614.104633,2309.779726 1609.371743,2308.374751"/>
    <poly id="227739829" type="landuse.industrial" color="209,209,204" fill="1" layer="-3.00" shape="1616.978714,2409.775790 1627.163845,2373.779943 1633.832444,2375.320035 1653.513676,2302.725973 1670.167594,2243.058974 1663.392763,2240.964814 1673.707331,2200.576388 1675.649108,2175.955417 1679.206527,2173.899472 1683.405477,2163.404097 1682.292991,2154.011877 1656.101231,2143.273263 1648.043729,2156.409038 1624.778506,2148.922135 1619.963069,2162.644716 1604.326420,2161.098002 1598.711632,2163.106537 1596.317571,2167.195725 1590.864487,2230.204788 1600.810257,2241.583638 1601.694635,2242.585749 1592.412638,2305.535154 1584.734249,2305.216493 1574.899000,2320.841048 1564.476666,2399.132016 1609.748960,2408.231821 1616.978714,2409.775790"/>
    <poly id="227740135" type="building.yes" color="255,230,230" fill="1" layer="-1.00" shape="1440.391065,2102.363696 1441.373087,2137.031207 1453.226384,2136.703596 1452.811407,2121.904626 1460.559513,2121.692534 1460.003562,2101.812999 1440.391065,2102.363696"/>
    <poly id="227740341" type="amenity.place_of_worship" color="237,199,199" fill="1" layer="-1.00" shape="1446.313725,1894.805420 1475.298297,1893.135276 1475.771059,1901.161858 1476.183913,1908.302696 1447.199351,1909.972836 1446.756615,1902.378062 1446.313725,1894.805420"/>
    <poly id="227743746" type="building.yes" color="255,230,230" fill="1" layer="-1.00" shape="1720.810409,1696.428048 1740.589646,1695.668314 1739.701460,1672.920180 1724.302929,1673.510985 1719.922212,1673.679917 1720.090301,1678.019211 1720.810409,1696.428048"/>
    <poly id="227743843" type="building.yes" color="255,230,230" fill="1" layer="-1.00" shape="1723.791843,1766.589165 1723.513594,1757.490444 1723.350555,1752.420785 1742.226191,1751.842950 1742.667473,1766.011332 1723.791843,1766.589165"/>
    <poly id="227744901" type="historic.monument" color="128,255,128" fill="1" layer="-1.00" shape="1604.213444,2153.560828 1603.111974,2153.719217 1602.024184,2153.490368 1601.081959,2152.897324 1600.405493,2152.062651 1600.049650,2151.008860 1600.079303,2149.902399 1600.704812,2148.556589 1601.535178,2147.820860 1602.572387,2147.407494 1603.530050,2147.358778 1604.606379,2147.653948 1605.515212,2148.302094 1606.146977,2149.236058 1606.414640,2150.311374 1606.308041,2151.406236 1605.817017,2152.398842 1605.019432,2153.167997 1604.213444,2153.560828"/>
    <poly id="227745162" type="building.yes" color="255,230,230" fill="1" layer="-1.00" shape="1774.382585,1921.750404 1780.980937,1906.402277 1773.202002,1903.105973 1766.603653,1918.454101 1774.382585,1921.750404"/>
    <poly id="257205113" type="building.yes" color="255,230,230" fill="1" layer="-1.00" shape="1596.037762,1366.499218 1595.229680,1352.848457 1475.788421,1359.837083 1472.288148,1300.982659 1458.692778,1301.774178 1463.001196,1374.279341 1596.037762,1366.499218"/>
    <poly id="257205133" type="building.yes" color="255,230,230" fill="1" layer="-1.00" shape="1664.045021,1351.763205 1664.901831,1366.321776 1622.761613,1368.786391 1621.805985,1352.600344 1624.062685,1352.472059 1622.228678,1321.660899 1639.038598,1320.670297 1640.971396,1353.108942 1656.052923,1352.228150 1664.045021,1351.763205"/>
    <poly id="257205319" type="building.yes" color="255,230,230" fill="1" layer="-1.00" shape="1486.686520,1563.306140 1485.978079,1554.348335 1485.233410,1542.667885 1502.109699,1541.611311 1503.574187,1562.194315 1501.031336,1562.331695 1486.686520,1563.306140"/>
    <poly id="257205334" type="building.yes" color="255,230,230" fill="1" layer="-1.00" shape="1475.755939,1528.769164 1475.340531,1518.806317 1489.781795,1518.208795 1490.120099,1528.182177 1475.755939,1528.769164"/>
    <poly id="257205335" type="building.yes" color="255,230,230" fill="1" layer="-1.00" shape="1477.824140,1563.920033 1477.182175,1554.896287 1485.978079,1554.348335 1486.686520,1563.306140 1477.824140,1563.920033"/>
    <poly id="257205336" type="building.yes" color="255,230,230" fill="1" layer="-1.00" shape="1488.383981,1491.152268 1487.811929,1481.564606 1470.231400,1482.616332 1470.803456,1492.203993 1488.383981,1491.152268"/>
    <poly id="257205337" type="building.yes" color="255,230,230" fill="1" layer="-1.00" shape="1471.632719,1502.789427 1470.803456,1492.203993 1488.383981,1491.152268 1488.883444,1501.691161 1471.632719,1502.789427"/>
    <poly id="257205338" type="building.yes" color="255,230,230" fill="1" layer="-1.00" shape="1489.592195,1510.604702 1488.883444,1501.691161 1471.632719,1502.789427 1472.177034,1511.613298 1489.592195,1510.604702"/>
    <poly id="257205339" type="building.yes" color="255,230,230" fill="1" layer="-1.00" shape="1501.031336,1562.331695 1501.499914,1570.966913 1478.326802,1572.400551 1477.824140,1563.920033 1486.686520,1563.306140 1501.031336,1562.331695"/>
    <poly id="257205340" type="building.yes" color="255,230,230" fill="1" layer="-1.00" shape="1476.011103,1536.440109 1475.755939,1528.769164 1490.120099,1528.182177 1492.277986,1528.020006 1492.654642,1535.625391 1476.011103,1536.440109"/>
    <poly id="257205341" type="building.yes" color="255,230,230" fill="1" layer="-1.00" shape="1475.340531,1518.806317 1472.346616,1518.929520 1472.177034,1511.613298 1489.592195,1510.604702 1489.781795,1518.208795 1475.340531,1518.806317"/>
    <poly id="257205342" type="building.yes" color="255,230,230" fill="1" layer="-1.00" shape="1477.182175,1554.896287 1476.011103,1536.440109 1492.654642,1535.625391 1501.682539,1534.946242 1502.109699,1541.611311 1485.233410,1542.667885 1485.978079,1554.348335 1477.182175,1554.896287"/>
    <poly id="257205375" type="building.yes" color="255,230,230" fill="1" layer="-1.00" shape="1548.044692,1590.345011 1547.700523,1579.630118 1538.686309,1579.922016 1539.041484,1590.636984 1548.044692,1590.345011"/>
    <poly id="257205376" type="building.yes" color="255,230,230" fill="1" layer="-1.00" shape="1521.707877,1539.987003 1521.914551,1527.582718 1534.380632,1527.779443 1534.184958,1540.183804 1521.707877,1539.987003"/>
    <poly id="257205378" type="building.yes" color="255,230,230" fill="1" layer="-1.00" shape="1523.692117,1563.384527 1524.125655,1546.809682 1544.008625,1546.969081 1543.857042,1564.143473 1528.544686,1563.406960 1523.692117,1563.384527"/>
    <poly id="257205379" type="building.yes" color="255,230,230" fill="1" layer="-1.00" shape="1526.586712,1526.641106 1526.689625,1518.109432 1545.086617,1518.336036 1544.983700,1526.867711 1526.586712,1526.641106"/>
    <poly id="257205380" type="building.yes" color="255,230,230" fill="1" layer="-1.00" shape="1534.597128,1604.804810 1546.229222,1604.663788 1546.095722,1593.717950 1534.463701,1593.847906 1534.597128,1604.804810"/>
    <poly id="257205381" type="building.yes" color="255,230,230" fill="1" layer="-1.00" shape="1523.195860,1592.231851 1522.793838,1580.332429 1538.686309,1579.922016 1539.041484,1590.636984 1539.089243,1591.688645 1536.161275,1591.823363 1523.195860,1592.231851"/>
    <poly id="257205382" type="building.yes" color="255,230,230" fill="1" layer="-1.00" shape="1501.499914,1570.966913 1501.998217,1580.078202 1512.444777,1579.519519 1512.258555,1576.209306 1511.477900,1561.773010 1503.574187,1562.194315 1501.031336,1562.331695 1501.499914,1570.966913"/>
    <poly id="257205409" type="building.yes" color="255,230,230" fill="1" layer="-1.00" shape="1538.417115,1477.055660 1537.930811,1469.394183 1520.184836,1470.500080 1520.671143,1478.161556 1538.417115,1477.055660"/>
    <poly id="257205412" type="building.yes" color="255,230,230" fill="1" layer="-1.00" shape="1538.417115,1477.055660 1540.035456,1476.945099 1540.889236,1490.352704 1521.524929,1491.569159 1520.671143,1478.161556 1538.417115,1477.055660"/>
    <poly id="257205495" type="building.yes" color="255,230,230" fill="1" layer="-1.00" shape="1495.654407,1521.901324 1505.680331,1521.704930 1505.890490,1532.706627 1495.864568,1532.903020 1495.654407,1521.901324"/>
    <poly id="257205496" type="building.yes" color="255,230,230" fill="1" layer="-1.00" shape="1511.599942,1462.793769 1511.163227,1455.918367 1519.232547,1455.420734 1519.669338,1462.285070 1511.599942,1462.793769"/>
    <poly id="257205497" type="building.yes" color="255,230,230" fill="1" layer="-1.00" shape="1519.669338,1462.285070 1537.404313,1461.179095 1537.930811,1469.394183 1520.184836,1470.500080 1519.669338,1462.285070"/>
    <poly id="257205498" type="building.yes" color="255,230,230" fill="1" layer="-1.00" shape="1497.693448,1483.160007 1497.214847,1472.787258 1506.725228,1472.354903 1507.192823,1482.727577 1497.693448,1483.160007"/>
    <poly id="257205587" type="building.yes" color="255,230,230" fill="1" layer="-1.00" shape="1528.059187,1861.616590 1527.499859,1851.785543 1523.592004,1852.002023 1523.169604,1844.650851 1527.220578,1844.424292 1526.935641,1839.475532 1540.376566,1838.716220 1541.643224,1860.847202 1528.059187,1861.616590"/>
    <poly id="257205588" type="building.yes" color="255,230,230" fill="1" layer="-1.00" shape="1521.952446,1828.097806 1507.850327,1828.996426 1507.044640,1816.596217 1521.146762,1815.697596 1521.952446,1828.097806"/>
    <poly id="257205589" type="building.yes" color="255,230,230" fill="1" layer="-1.00" shape="1538.602830,1823.088927 1538.228960,1800.742779 1524.879794,1800.960464 1524.714669,1791.408805 1559.237672,1790.839342 1559.776647,1822.737155 1538.602830,1823.088927"/>
    <poly id="257205590" type="building.yes" color="255,230,230" fill="1" layer="-1.00" shape="1541.920470,1836.635285 1563.862604,1834.971891 1565.841555,1860.715525 1554.776890,1861.557639 1554.534286,1858.446234 1543.656830,1859.267510 1541.920470,1836.635285"/>
    <poly id="257205744" type="building.yes" color="255,230,230" fill="1" layer="-1.00" shape="1461.641111,1783.370536 1461.609395,1779.994990 1460.499262,1767.061487 1460.512096,1765.202379 1479.589796,1764.039287 1480.718803,1782.207447 1461.641111,1783.370536"/>
    <poly id="257205749" type="building.yes" color="255,230,230" fill="1" layer="-1.00" shape="1464.404680,1827.766858 1463.216529,1808.602294 1482.294286,1807.428143 1483.482428,1826.592710 1464.404680,1827.766858"/>
    <poly id="257205753" type="building.yes" color="255,230,230" fill="1" layer="-1.00" shape="1455.316388,1765.476377 1435.366909,1766.998661 1434.336081,1753.733709 1454.285643,1752.200357 1455.316388,1765.476377"/>
    <poly id="257205755" type="building.yes" color="255,230,230" fill="1" layer="-1.00" shape="1454.443738,1751.614916 1453.230820,1736.035776 1433.281251,1737.569132 1434.494176,1753.148268 1454.443738,1751.614916"/>
    <poly id="257205757" type="building.yes" color="255,230,230" fill="1" layer="-1.00" shape="1463.216529,1808.602294 1462.463474,1796.545519 1481.541160,1795.382433 1482.294286,1807.428143 1463.216529,1808.602294"/>
    <poly id="257205759" type="building.yes" color="255,230,230" fill="1" layer="-1.00" shape="1453.082808,1735.160490 1452.203053,1723.921774 1433.222306,1725.384353 1432.253478,1725.455132 1433.133239,1736.693845 1453.082808,1735.160490"/>
    <poly id="257205761" type="building.yes" color="255,230,230" fill="1" layer="-1.00" shape="1420.874747,1787.737112 1420.189447,1772.239085 1433.265973,1771.665349 1445.924223,1771.110862 1446.609514,1786.608893 1436.405849,1787.058588 1420.874747,1787.737112"/>
    <poly id="257205763" type="building.yes" color="255,230,230" fill="1" layer="-1.00" shape="1460.512096,1765.202379 1458.640178,1735.099253 1465.949370,1734.718111 1477.727902,1734.080092 1479.589796,1764.039287 1460.512096,1765.202379"/>
    <poly id="257205766" type="building.yes" color="255,230,230" fill="1" layer="-1.00" shape="1452.507247,1722.894676 1450.840117,1701.380682 1431.848434,1702.832121 1433.203495,1720.138635 1433.526500,1724.357255 1452.507247,1722.894676"/>
    <poly id="257205768" type="building.yes" color="255,230,230" fill="1" layer="-1.00" shape="1435.422432,1789.242995 1435.354881,1787.870265 1419.338641,1788.689306 1420.504434,1811.096234 1458.051850,1809.164237 1456.953551,1788.141098 1435.422432,1789.242995"/>
    <poly id="257205773" type="building.commercial" color="255,230,230" fill="1" layer="-1.00" shape="1421.527975,1812.663696 1422.963338,1832.682091 1438.442309,1831.582681 1438.080108,1826.666591 1460.538924,1825.073108 1459.454697,1809.981787 1421.527975,1812.663696"/>
    <poly id="257205775" type="building.yes" color="255,230,230" fill="1" layer="-1.00" shape="1453.743444,1723.943474 1454.458966,1723.904147 1462.946204,1723.431536 1464.046996,1723.372735 1463.498874,1713.508572 1459.899178,1713.716122 1459.095369,1699.445670 1452.391432,1699.819927 1453.743444,1723.943474"/>
    <poly id="257205925" type="building.yes" color="255,230,230" fill="1" layer="-1.00" shape="1465.786683,1731.186728 1475.451965,1730.622653 1475.028554,1723.415345 1465.352268,1723.979344 1465.786683,1731.186728"/>