<?xml version="1.0" encoding="UTF-8"?>

<!-- generated on 2024-03-09 13:04:43.197008 by osmWebWizard.py v1_17_0+0000-737931d58da
<configuration>
    <net-file value="C:\Users\IVY\Sumo\2024-03-09-13-04-34\osm.net.xml.gz"/>
    <output-trip-file value="C:\Users\IVY\Sumo\2024-03-09-13-04-34\osm.passenger.trips.xml"/>
    <route-file value="C:\Users\IVY\Sumo\2024-03-09-13-04-34\osm.passenger.rou.xml"/>
    <prefix value="veh"/>
    <trip-attributes value="departLane=&quot;best&quot;"/>
    <fringe-start-attributes value="departSpeed=&quot;max&quot;"/>
    <lanes value="True"/>
    <fringe-factor value="5"/>
    <allow-fringe.min-length value="1000.0"/>
    <min-distance value="300.0"/>
    <min-distance.fringe value="10.0"/>
    <vehicle-class value="passenger"/>
    <remove-loops value="True"/>
    <via-edge-types value="highway.motorway,highway.motorway_link,highway.trunk_link,highway.primary_link,highway.secondary_link,highway.tertiary_link"/>
    <validate value="True"/>
    <insertion-density value="12.0"/>
</configuration>
-->

<!-- generated on 2024-03-09 13:04:43 by Eclipse SUMO duarouter Version 1.17.0
<configuration xmlns:xsi="http://www.w3.org/2001/XMLSchema-instance" xsi:noNamespaceSchemaLocation="http://sumo.dlr.de/xsd/duarouterConfiguration.xsd">

    <input>
        <net-file value="C:\Users\IVY\Sumo\2024-03-09-13-04-34\osm.net.xml.gz"/>
        <route-files value="C:\Users\IVY\Sumo\2024-03-09-13-04-34\osm.passenger.trips.xml"/>
    </input>

    <output>
        <output-file value="C:\Users\IVY\Sumo\2024-03-09-13-04-34\osm.passenger.trips.xml.tmp"/>
        <alternatives-output value="NUL"/>
        <write-trips value="true"/>
    </output>

    <processing>
        <remove-loops value="true"/>
    </processing>

    <time>
        <begin value="0.0"/>
        <end value="3600.0"/>
    </time>

    <report>
        <no-warnings value="true"/>
        <ignore-errors value="true"/>
        <no-step-log value="true"/>
    </report>

</configuration>
-->

<routes xmlns:xsi="http://www.w3.org/2001/XMLSchema-instance" xsi:noNamespaceSchemaLocation="http://sumo.dlr.de/xsd/routes_file.xsd">
    <vType id="veh_passenger" vClass="passenger"/>
    <trip id="veh0" type="veh_passenger" depart="0.00" departLane="best" from="227750944#2" to="-166219910"/>
    <trip id="veh1" type="veh_passenger" depart="5.90" departLane="best" from="-813028986" to="-57016687#1"/>
    <trip id="veh2" type="veh_passenger" depart="11.80" departLane="best" departSpeed="max" from="339112712#0" to="339112712#5"/>
    <trip id="veh3" type="veh_passenger" depart="17.70" departLane="best" from="166219963#0" to="166219927#0"/>
    <trip id="veh4" type="veh_passenger" depart="23.60" departLane="best" departSpeed="max" from="-357045554" to="339112712#7"/>
    <trip id="veh5" type="veh_passenger" depart="29.50" departLane="best" departSpeed="max" from="-166219913#1" to="339112690#6"/>
    <trip id="veh6" type="veh_passenger" depart="35.40" departLane="best" departSpeed="max" from="227817794" to="169680966#3"/>
    <trip id="veh7" type="veh_passenger" depart="41.30" departLane="best" departSpeed="max" from="-357045554" to="227750944#5"/>
    <trip id="veh8" type="veh_passenger" depart="47.20" departLane="best" from="357045558#2" to="-117031001#1"/>
    <trip id="veh9" type="veh_passenger" depart="53.10" departLane="best" from="357045558#1" to="339112712#9"/>
    <trip id="veh10" type="veh_passenger" depart="59.00" departLane="best" from="117031001#0" to="-227750944#1"/>
    <trip id="veh11" type="veh_passenger" depart="64.90" departLane="best" from="-646131033" to="166219927#4"/>
    <trip id="veh12" type="veh_passenger" depart="70.79" departLane="best" from="166219972#2" to="-166220873#0"/>
    <trip id="veh13" type="veh_passenger" depart="76.69" departLane="best" from="357045558#2" to="357045553#0"/>
    <trip id="veh14" type="veh_passenger" depart="82.59" departLane="best" from="227744647#1" to="267607730#2"/>
    <trip id="veh15" type="veh_passenger" depart="88.49" departLane="best" from="443996534#0" to="227744647#2"/>
    <trip id="veh16" type="veh_passenger" depart="94.39" departLane="best" from="339112690#6" to="-166219949#3"/>
    <trip id="veh17" type="veh_passenger" depart="100.29" departLane="best" from="-166219960#2" to="-57017120#2"/>
    <trip id="veh18" type="veh_passenger" depart="106.19" departLane="best" from="-166220883#0" to="1124739286#0"/>
    <trip id="veh19" type="veh_passenger" depart="112.09" departLane="best" departSpeed="max" from="227750944#0" to="166219956#1"/>
    <trip id="veh20" type="veh_passenger" depart="117.99" departLane="best" departSpeed="max" from="166219910" to="357045553#2"/>
    <trip id="veh21" type="veh_passenger" depart="123.89" departLane="best" from="724017860#1" to="850016092"/>
    <trip id="veh22" type="veh_passenger" depart="129.79" departLane="best" departSpeed="max" from="227817794" to="267607730#1"/>
    <trip id="veh23" type="veh_passenger" depart="135.69" departLane="best" departSpeed="max" from="-227827182" to="357045553#0"/>
    <trip id="veh24" type="veh_passenger" depart="141.59" departLane="best" from="227750944#3" to="166219960#1"/>
    <trip id="veh25" type="veh_passenger" depart="147.49" departLane="best" from="850015581" to="-339112690#1"/>
    <trip id="veh26" type="veh_passenger" depart="153.39" departLane="best" from="-169680951#2" to="1124739286#0"/>
    <trip id="veh27" type="veh_passenger" depart="159.29" departLane="best" departSpeed="max" from="-986107130" to="813028986"/>
    <trip id="veh28" type="veh_passenger" depart="165.19" departLane="best" departSpeed="max" from="-357045553#3" to="850016092"/>
    <trip id="veh29" type="veh_passenger" depart="171.09" departLane="best" from="443996534#3" to="-166219907#2"/>
    <trip id="veh30" type="veh_passenger" depart="176.99" departLane="best" from="267607730#0" to="166219963#2"/>
    <trip id="veh31" type="veh_passenger" depart="182.89" departLane="best" from="57011500#2" to="167317172#1"/>
    <trip id="veh32" type="veh_passenger" depart="188.79" departLane="best" from="724017860#1" to="-691299759"/>
    <trip id="veh33" type="veh_passenger" depart="194.69" departLane="best" from="169680951#5" to="-724017861#1"/>
    <trip id="veh34" type="veh_passenger" depart="200.58" departLane="best" departSpeed="max" from="169680966#0" to="57017120#6"/>
    <trip id="veh35" type="veh_passenger" depart="206.48" departLane="best" from="166219949#0" to="-57016687#0"/>
    <trip id="veh36" type="veh_passenger" depart="212.38" departLane="best" from="166219972#1" to="-166219949#3"/>
    <trip id="veh37" type="veh_passenger" depart="218.28" departLane="best" from="167317226#2" to="267607730#2"/>
    <trip id="veh38" type="veh_passenger" depart="224.18" departLane="best" from="169680966#2" to="166219968#1"/>
    <trip id="veh39" type="veh_passenger" depart="230.08" departLane="best" from="-166219956#1" to="166219960#2"/>
    <trip id="veh40" type="veh_passenger" depart="235.98" departLane="best" from="868986731" to="169680965#1"/>
    <trip id="veh41" type="veh_passenger" depart="241.88" departLane="best" from="724017859#0" to="57011500#0"/>
    <trip id="veh42" type="veh_passenger" depart="247.78" departLane="best" from="-166219907#0" to="339112719#4"/>
    <trip id="veh43" type="veh_passenger" depart="253.68" departLane="best" from="-724017860#1" to="-339112690#3"/>
    <trip id="veh44" type="veh_passenger" depart="259.58" departLane="best" from="166219968#1" to="853112594"/>
    <trip id="veh45" type="veh_passenger" depart="265.48" departLane="best" from="166220883#1" to="-339112690#0"/>
    <trip id="veh46" type="veh_passenger" depart="271.38" departLane="best" departSpeed="max" from="227743997#0" to="-227750944#0"/>
    <trip id="veh47" type="veh_passenger" depart="277.28" departLane="best" from="339112712#6" to="169680965#3"/>
    <trip id="veh48" type="veh_passenger" depart="283.18" departLane="best" from="339112712#9" to="169680965#2"/>
    <trip id="veh49" type="veh_passenger" depart="289.08" departLane="best" from="-117031001#0" to="166219913#1"/>
    <trip id="veh50" type="veh_passenger" depart="294.98" departLane="best" from="-166219913#0" to="850015581"/>
    <trip id="veh51" type="veh_passenger" depart="300.88" departLane="best" departSpeed="max" from="-986104609" to="-166219960#0"/>
    <trip id="veh52" type="veh_passenger" depart="306.78" departLane="best" from="443996534#3" to="850016092"/>
    <trip id="veh53" type="veh_passenger" depart="312.68" departLane="best" from="-166219967#1" to="227744647#0"/>
    <trip id="veh54" type="veh_passenger" depart="318.58" departLane="best" departSpeed="max" from="-166219956#4" to="357045558#2"/>
    <trip id="veh55" type="veh_passenger" depart="324.48" departLane="best" from="339112712#7" to="-169680965#2"/>
    <trip id="veh56" type="veh_passenger" depart="330.37" departLane="best" departSpeed="max" from="166219972#0" to="339112719#0"/>
    <trip id="veh57" type="veh_passenger" depart="336.27" departLane="best" from="166219963#0" to="-57011498#1"/>
    <trip id="veh58" type="veh_passenger" depart="342.17" departLane="best" from="-357045553#0" to="166219907#1"/>
    <trip id="veh59" type="veh_passenger" depart="348.07" departLane="best" from="868986731" to="-339112690#5"/>
    <trip id="veh60" type="veh_passenger" depart="353.97" departLane="best" from="166219963#3" to="169680951#1"/>
    <trip id="veh61" type="veh_passenger" depart="359.87" departLane="best" from="117031001#0" to="-227750944#5"/>
    <trip id="veh62" type="veh_passenger" depart="365.77" departLane="best" departSpeed="max" from="-166219956#4" to="267607730#2"/>
    <trip id="veh63" type="veh_passenger" depart="371.67" departLane="best" from="-57016687#1" to="646131033"/>
    <trip id="veh64" type="veh_passenger" depart="377.57" departLane="best" from="443996534#0" to="-166219972#0"/>
    <trip id="veh65" type="veh_passenger" depart="383.47" departLane="best" from="-57017120#1" to="267607730#1"/>
    <trip id="veh66" type="veh_passenger" depart="389.37" departLane="best" departSpeed="max" from="-357045553#3" to="-227494446#1"/>
    <trip id="veh67" type="veh_passenger" depart="395.27" departLane="best" departSpeed="max" from="57016687#0" to="227744647#0"/>
    <trip id="veh68" type="veh_passenger" depart="401.17" departLane="best" departSpeed="max" from="166219972#0" to="357045566#0"/>
    <trip id="veh69" type="veh_passenger" depart="407.07" departLane="best" from="357045558#2" to="-339112690#4"/>
    <trip id="veh70" type="veh_passenger" depart="412.97" departLane="best" from="-166220873#0" to="166219968#3"/>
    <trip id="veh71" type="veh_passenger" depart="418.87" departLane="best" departSpeed="max" from="339112712#0" to="339112712#4"/>
    <trip id="veh72" type="veh_passenger" depart="424.77" departLane="best" from="-724017862#1" to="-166220873#1"/>
    <trip id="veh73" type="veh_passenger" depart="430.67" departLane="best" from="166219949#2" to="166219927#4"/>
    <trip id="veh74" type="veh_passenger" depart="436.57" departLane="best" from="339112690#5" to="167317050"/>
    <trip id="veh75" type="veh_passenger" depart="442.47" departLane="best" from="166219963#0" to="1124739286#0"/>
    <trip id="veh76" type="veh_passenger" depart="448.37" departLane="best" departSpeed="max" from="-57017120#6" to="724017862#0"/>
    <trip id="veh77" type="veh_passenger" depart="454.27" departLane="best" from="169562129#3" to="166219954#1"/>
    <trip id="veh78" type="veh_passenger" depart="460.16" departLane="best" from="877391419" to="57011499#0"/>
    <trip id="veh79" type="veh_passenger" depart="466.06" departLane="best" from="724017859#0" to="850015580"/>
    <trip id="veh80" type="veh_passenger" depart="471.96" departLane="best" from="357045569#0" to="-339112690#0"/>
    <trip id="veh81" type="veh_passenger" depart="477.86" departLane="best" from="166219913#0" to="986107130"/>
    <trip id="veh82" type="veh_passenger" depart="483.76" departLane="best" from="-724017860#1" to="357045566#0"/>
    <trip id="veh83" type="veh_passenger" depart="489.66" departLane="best" from="-646131033" to="986107131"/>
    <trip id="veh84" type="veh_passenger" depart="495.56" departLane="best" from="-169680951#2" to="339112719#4"/>
    <trip id="veh85" type="veh_passenger" depart="501.46" departLane="best" departSpeed="max" from="-227744471#3" to="166219897#0"/>
    <trip id="veh86" type="veh_passenger" depart="507.36" departLane="best" from="724017859#0" to="227744647#2"/>
    <trip id="veh87" type="veh_passenger" depart="513.26" departLane="best" from="169557779#2" to="357045554"/>
    <trip id="veh88" type="veh_passenger" depart="519.16" departLane="best" from="-166219949#3" to="-227750944#2"/>
    <trip id="veh89" type="veh_passenger" depart="525.06" departLane="best" from="167317050" to="57011499#4"/>
    <trip id="veh90" type="veh_passenger" depart="530.96" departLane="best" departSpeed="max" from="-227744471#3" to="-868986731"/>
    <trip id="veh91" type="veh_passenger" depart="536.86" departLane="best" from="-166219960#2" to="-339112690#1"/>
    <trip id="veh92" type="veh_passenger" depart="542.76" departLane="best" from="169680966#4" to="1124739286#1"/>
    <trip id="veh93" type="veh_passenger" depart="548.66" departLane="best" from="-57017120#0" to="-169680951#5"/>
    <trip id="veh94" type="veh_passenger" depart="554.56" departLane="best" from="169680966#3" to="267607730#2"/>
    <trip id="veh95" type="veh_passenger" depart="560.46" departLane="best" from="166219960#3" to="-227750944#2"/>
    <trip id="veh96" type="veh_passenger" depart="566.36" departLane="best" from="-167317226#1" to="850016092"/>
    <trip id="veh97" type="veh_passenger" depart="572.26" departLane="best" from="-357045553#1" to="339112719#4"/>
    <trip id="veh98" type="veh_passenger" depart="578.16" departLane="best" from="-57017120#2" to="166219963#2"/>
    <trip id="veh99" type="veh_passenger" depart="584.06" departLane="best" departSpeed="max" from="-986107130" to="357045558#1"/>
    <trip id="veh100" type="veh_passenger" depart="589.95" departLane="best" departSpeed="max" from="-166219956#4" to="167317172#1"/>
    <trip id="veh101" type="veh_passenger" depart="595.85" departLane="best" departSpeed="max" from="-166219956#4" to="-57016687#0"/>
    <trip id="veh102" type="veh_passenger" depart="601.75" departLane="best" from="724017860#1" to="850016092"/>
    <trip id="veh103" type="veh_passenger" depart="607.65" departLane="best" from="57011498#1" to="57016687#1"/>
    <trip id="veh104" type="veh_passenger" depart="613.55" departLane="best" departSpeed="max" from="166219910" to="-227750944#2"/>
    <trip id="veh105" type="veh_passenger" depart="619.45" departLane="best" from="357045566#0" to="339112719#0"/>
    <trip id="veh106" type="veh_passenger" depart="625.35" departLane="best" departSpeed="max" from="227743997#0" to="986107130"/>
    <trip id="veh107" type="veh_passenger" depart="631.25" departLane="best" from="339112712#3" to="850016092"/>
    <trip id="veh108" type="veh_passenger" depart="637.15" departLane="best" departSpeed="max" from="-169680965#3" to="169680951#2"/>
    <trip id="veh109" type="veh_passenger" depart="643.05" departLane="best" from="-167317226#0" to="-227494446#0"/>
    <trip id="veh110" type="veh_passenger" depart="648.95" departLane="best" from="-724017862#1" to="267607730#1"/>
    <trip id="veh111" type="veh_passenger" depart="654.85" departLane="best" departSpeed="max" from="339112712#0" to="339112691#0"/>
    <trip id="veh112" type="veh_passenger" depart="660.75" departLane="best" departSpeed="max" from="227750944#0" to="724017861#0"/>
    <trip id="veh113" type="veh_passenger" depart="666.65" departLane="best" departSpeed="max" from="166220841#0" to="646131033"/>
    <trip id="veh114" type="veh_passenger" depart="672.55" departLane="best" from="357045569#0" to="-166220841#1"/>
    <trip id="veh115" type="veh_passenger" depart="678.45" departLane="best" from="166219963#0" to="1124739286#0"/>
    <trip id="veh116" type="veh_passenger" depart="684.35" departLane="best" from="117031001#0" to="357045558#4"/>
    <trip id="veh117" type="veh_passenger" depart="690.25" departLane="best" from="227750944#1" to="724017861#0"/>
    <trip id="veh118" type="veh_passenger" depart="696.15" departLane="best" from="339112712#1" to="227494432"/>
    <trip id="veh119" type="veh_passenger" depart="702.05" departLane="best" departSpeed="max" from="-166219956#4" to="-57016687#3"/>
    <trip id="veh120" type="veh_passenger" depart="707.95" departLane="best" from="57011499#4" to="169680966#3"/>
    <trip id="veh121" type="veh_passenger" depart="713.85" departLane="best" from="227744471#1" to="-169680965#2"/>
    <trip id="veh122" type="veh_passenger" depart="719.74" departLane="best" departSpeed="max" from="-986107130" to="57017120#6"/>
    <trip id="veh123" type="veh_passenger" depart="725.64" departLane="best" from="-357045553#0" to="57011500#0"/>
    <trip id="veh124" type="veh_passenger" depart="731.54" departLane="best" departSpeed="max" from="-57017120#6" to="167317050"/>
    <trip id="veh125" type="veh_passenger" depart="737.44" departLane="best" from="339112712#9" to="57016690"/>
    <trip id="veh126" type="veh_passenger" depart="743.34" departLane="best" from="166219954#1" to="267607730#2"/>
    <trip id="veh127" type="veh_passenger" depart="749.24" departLane="best" departSpeed="max" from="-227744471#3" to="850015582"/>
    <trip id="veh128" type="veh_passenger" depart="755.14" departLane="best" from="443996534#1" to="986104609"/>
    <trip id="veh129" type="veh_passenger" depart="761.04" departLane="best" from="357045558#2" to="-57016687#2"/>
    <trip id="veh130" type="veh_passenger" depart="766.94" departLane="best" departSpeed="max" from="-166219913#1" to="357045553#3"/>
    <trip id="veh131" type="veh_passenger" depart="772.84" departLane="best" from="339112712#5" to="850015582"/>
    <trip id="veh132" type="veh_passenger" depart="778.74" departLane="best" from="357045558#1" to="57011500#2"/>
    <trip id="veh133" type="veh_passenger" depart="784.64" departLane="best" from="357045558#2" to="724017862#0"/>
    <trip id="veh134" type="veh_passenger" depart="790.54" departLane="best" departSpeed="max" from="-357045554" to="443996534#1"/>
    <trip id="veh136" type="veh_passenger" depart="802.34" departLane="best" departSpeed="max" from="-166219913#1" to="339112690#4"/>
    <trip id="veh137" type="veh_passenger" depart="808.24" departLane="best" from="339112712#6" to="57011500#2"/>
    <trip id="veh138" type="veh_passenger" depart="814.14" departLane="best" departSpeed="max" from="691299759" to="1124739286#0"/>
    <trip id="veh139" type="veh_passenger" depart="820.04" departLane="best" from="227750944#3" to="166219963#3"/>
    <trip id="veh140" type="veh_passenger" depart="825.94" departLane="best" from="-724017861#1" to="169680965#3"/>
    <trip id="veh141" type="veh_passenger" depart="831.84" departLane="best" from="-724017859#1" to="-339112690#0"/>
    <trip id="veh142" type="veh_passenger" depart="837.74" departLane="best" departSpeed="max" from="339112712#0" to="166219907#2"/>
    <trip id="veh143" type="veh_passenger" depart="843.64" departLane="best" from="-166219927#1" to="227744647#2"/>
    <trip id="veh144" type="veh_passenger" depart="849.53" departLane="best" from="-646131033" to="339112719#3"/>
    <trip id="veh145" type="veh_passenger" depart="855.43" departLane="best" from="-117031001#0" to="813028986"/>
    <trip id="veh146" type="veh_passenger" depart="861.33" departLane="best" from="169557779#1" to="339112719#4"/>
    <trip id="veh147" type="veh_passenger" depart="867.23" departLane="best" from="166219907#1" to="-166219967#3"/>
    <trip id="veh148" type="veh_passenger" depart="873.13" departLane="best" from="339112712#3" to="166219927#0"/>
    <trip id="veh149" type="veh_passenger" depart="879.03" departLane="best" departSpeed="max" from="-986107130" to="57011499#3"/>
    <trip id="veh150" type="veh_passenger" depart="884.93" departLane="best" departSpeed="max" from="339112712#0" to="166219897#1"/>
    <trip id="veh151" type="veh_passenger" depart="890.83" departLane="best" departSpeed="max" from="-986107130" to="166219967#1"/>
    <trip id="veh152" type="veh_passenger" depart="896.73" departLane="best" from="-169680965#1" to="166219968#1"/>
    <trip id="veh153" type="veh_passenger" depart="902.63" departLane="best" from="57016687#1" to="1124739286#1"/>
    <trip id="veh154" type="veh_passenger" depart="908.53" departLane="best" from="57011499#3" to="267607730#2"/>
    <trip id="veh155" type="veh_passenger" depart="914.43" departLane="best" from="166219963#1" to="-227750944#0"/>
    <trip id="veh156" type="veh_passenger" depart="920.33" departLane="best" from="166219967#0" to="-57016687#0"/>
    <trip id="veh157" type="veh_passenger" depart="926.23" departLane="best" departSpeed="max" from="166219972#0" to="57017120#6"/>
    <trip id="veh158" type="veh_passenger" depart="932.13" departLane="best" from="-357045553#0" to="-339112690#0"/>
    <trip id="veh159" type="veh_passenger" depart="938.03" departLane="best" from="-166219967#1" to="169562129#4"/>
    <trip id="veh160" type="veh_passenger" depart="943.93" departLane="best" departSpeed="max" from="227750944#0" to="166219927#3"/>
    <trip id="veh161" type="veh_passenger" depart="949.83" departLane="best" from="357045558#4" to="357045554"/>
    <trip id="veh162" type="veh_passenger" depart="955.73" departLane="best" departSpeed="max" from="339112690#0" to="-57016687#2"/>
    <trip id="veh163" type="veh_passenger" depart="961.63" departLane="best" from="-339112691#1" to="-166219910"/>
    <trip id="veh164" type="veh_passenger" depart="967.53" departLane="best" from="-57017120#5" to="227744647#0"/>
    <trip id="veh165" type="veh_passenger" depart="973.43" departLane="best" from="357045569#0" to="-166219972#0"/>
    <trip id="veh166" type="veh_passenger" depart="979.32" departLane="best" from="166219960#1" to="267607730#2"/>
    <trip id="veh167" type="veh_passenger" depart="985.22" departLane="best" from="166220853" to="-691299759"/>
    <trip id="veh168" type="veh_passenger" depart="991.12" departLane="best" from="339112712#4" to="-117031001#1"/>
    <trip id="veh169" type="veh_passenger" depart="997.02" departLane="best" departSpeed="max" from="-227827182" to="860949155"/>
    <trip id="veh170" type="veh_passenger" depart="1002.92" departLane="best" from="167317172#2" to="166219954#1"/>
    <trip id="veh171" type="veh_passenger" depart="1008.82" departLane="best" departSpeed="max" from="-57017120#6" to="57011499#3"/>
    <trip id="veh173" type="veh_passenger" depart="1020.62" departLane="best" from="169680966#4" to="853112594"/>
    <trip id="veh174" type="veh_passenger" depart="1026.52" departLane="best" from="57011499#1" to="267607730#2"/>
    <trip id="veh175" type="veh_passenger" depart="1032.42" departLane="best" departSpeed="max" from="339112712#0" to="339112712#7"/>
    <trip id="veh176" type="veh_passenger" depart="1038.32" departLane="best" from="357045566#0" to="169680966#4"/>
    <trip id="veh177" type="veh_passenger" depart="1044.22" departLane="best" from="57011499#2" to="357045554"/>
    <trip id="veh178" type="veh_passenger" depart="1050.12" departLane="best" departSpeed="max" from="166219972#0" to="724017860#1"/>
    <trip id="veh179" type="veh_passenger" depart="1056.02" departLane="best" departSpeed="max" from="-57017120#6" to="339112690#1"/>
    <trip id="veh180" type="veh_passenger" depart="1061.92" departLane="best" from="339112712#7" to="169680951#4"/>
    <trip id="veh181" type="veh_passenger" depart="1067.82" departLane="best" from="227744647#2" to="-877391419"/>
    <trip id="veh182" type="veh_passenger" depart="1073.72" departLane="best" from="-166219960#1" to="117031001#0"/>
    <trip id="veh183" type="veh_passenger" depart="1079.62" departLane="best" from="-724017862#1" to="166219913#1"/>
    <trip id="veh184" type="veh_passenger" depart="1085.52" departLane="best" from="339112712#7" to="-227743997#0"/>
    <trip id="veh185" type="veh_passenger" depart="1091.42" departLane="best" from="339112690#6" to="-166219967#0"/>
    <trip id="veh186" type="veh_passenger" depart="1097.32" departLane="best" from="166219956#0" to="339112719#3"/>
    <trip id="veh187" type="veh_passenger" depart="1103.22" departLane="best" from="-166219960#2" to="357045553#1"/>
    <trip id="veh188" type="veh_passenger" depart="1109.11" departLane="best" from="166219963#0" to="57017120#6"/>
    <trip id="veh189" type="veh_passenger" depart="1115.01" departLane="best" departSpeed="max" from="169680966#0" to="169557779#0"/>
    <trip id="veh190" type="veh_passenger" depart="1120.91" departLane="best" from="443996534#0" to="357045558#3"/>
    <trip id="veh191" type="veh_passenger" depart="1126.81" departLane="best" from="357045569#1" to="853112594"/>
    <trip id="veh192" type="veh_passenger" depart="1132.71" departLane="best" from="166219960#3" to="357045554"/>
    <trip id="veh193" type="veh_passenger" depart="1138.61" departLane="best" from="169562129#0" to="267607730#0"/>
    <trip id="veh194" type="veh_passenger" depart="1144.51" departLane="best" departSpeed="max" from="-357045554" to="-57016687#0"/>
    <trip id="veh195" type="veh_passenger" depart="1150.41" departLane="best" from="166219963#3" to="166219927#0"/>
    <trip id="veh196" type="veh_passenger" depart="1156.31" departLane="best" from="166219968#3" to="-169680965#2"/>
    <trip id="veh197" type="veh_passenger" depart="1162.21" departLane="best" from="227744647#1" to="-166219913#0"/>
    <trip id="veh198" type="veh_passenger" depart="1168.11" departLane="best" from="166219944#2" to="227744471#3"/>
    <trip id="veh199" type="veh_passenger" depart="1174.01" departLane="best" departSpeed="max" from="-166219913#1" to="-339112690#3"/>
    <trip id="veh200" type="veh_passenger" depart="1179.91" departLane="best" departSpeed="max" from="-169680965#3" to="167317172#2"/>
    <trip id="veh201" type="veh_passenger" depart="1185.81" departLane="best" from="166219947" to="166219960#1"/>
    <trip id="veh202" type="veh_passenger" depart="1191.71" departLane="best" departSpeed="max" from="-357045553#3" to="166219913#1"/>
    <trip id="veh203" type="veh_passenger" depart="1197.61" departLane="best" from="339112712#6" to="166219960#1"/>
    <trip id="veh204" type="veh_passenger" depart="1203.51" departLane="best" from="339112712#4" to="57011499#0"/>
    <trip id="veh205" type="veh_passenger" depart="1209.41" departLane="best" departSpeed="max" from="-57017120#6" to="-166219972#2"/>
    <trip id="veh206" type="veh_passenger" depart="1215.31" departLane="best" departSpeed="max" from="227817794" to="357045566#0"/>
    <trip id="veh207" type="veh_passenger" depart="1221.21" departLane="best" departSpeed="max" from="227817794" to="357045558#1"/>
    <trip id="veh208" type="veh_passenger" depart="1227.11" departLane="best" departSpeed="max" from="-166219913#1" to="-227750944#0"/>
    <trip id="veh209" type="veh_passenger" depart="1233.01" departLane="best" from="-169680951#7" to="267607730#0"/>
    <trip id="veh210" type="veh_passenger" depart="1238.90" departLane="best" from="339112690#4" to="357045558#3"/>
    <trip id="veh211" type="veh_passenger" depart="1244.80" departLane="best" from="339112712#3" to="169680951#2"/>
    <trip id="veh212" type="veh_passenger" depart="1250.70" departLane="best" from="357045558#4" to="-877391419"/>
    <trip id="veh213" type="veh_passenger" depart="1256.60" departLane="best" from="-167317226#1" to="-166219910"/>
    <trip id="veh214" type="veh_passenger" depart="1262.50" departLane="best" departSpeed="max" from="-986107130" to="1124739286#1"/>
    <trip id="veh215" type="veh_passenger" depart="1268.40" departLane="best" departSpeed="max" from="339112712#0" to="-166219972#0"/>
    <trip id="veh216" type="veh_passenger" depart="1274.30" departLane="best" from="339112690#1" to="267607730#2"/>
    <trip id="veh217" type="veh_passenger" depart="1280.20" departLane="best" from="-166220883#0" to="357045558#4"/>
    <trip id="veh218" type="veh_passenger" depart="1286.10" departLane="best" from="-169680951#4" to="986107130"/>
    <trip id="veh219" type="veh_passenger" depart="1292.00" departLane="best" from="339112719#0" to="-166219944#1"/>
    <trip id="veh220" type="veh_passenger" depart="1297.90" departLane="best" from="166219963#1" to="166219956#4"/>
    <trip id="veh221" type="veh_passenger" depart="1303.80" departLane="best" from="167317172#0" to="166219927#4"/>
    <trip id="veh222" type="veh_passenger" depart="1309.70" departLane="best" from="167317050" to="-868986731"/>
    <trip id="veh223" type="veh_passenger" depart="1315.60" departLane="best" departSpeed="max" from="227750944#0" to="57011498#0"/>
    <trip id="veh224" type="veh_passenger" depart="1321.50" departLane="best" from="339112690#6" to="-166219972#2"/>
    <trip id="veh225" type="veh_passenger" depart="1327.40" departLane="best" departSpeed="max" from="339112712#0" to="986104608"/>
    <trip id="veh226" type="veh_passenger" depart="1333.30" departLane="best" from="169557779#1" to="167317250"/>
    <trip id="veh227" type="veh_passenger" depart="1339.20" departLane="best" from="166219963#3" to="357045553#1"/>
    <trip id="veh228" type="veh_passenger" depart="1345.10" departLane="best" from="357045566#0" to="-166220841#0"/>
    <trip id="veh229" type="veh_passenger" depart="1351.00" departLane="best" from="166219968#3" to="267607730#2"/>
    <trip id="veh230" type="veh_passenger" depart="1356.90" departLane="best" from="166219913#0" to="-166219927#0"/>