<?xml version="1.0" encoding="UTF-8"?>

<!-- generated on 2024-03-09 13:04:38 by Eclipse SUMO netconvert Version 1.17.0
<configuration xmlns:xsi="http://www.w3.org/2001/XMLSchema-instance" xsi:noNamespaceSchemaLocation="http://sumo.dlr.de/xsd/netconvertConfiguration.xsd">

    <input>
        <type-files value="${SUMO_HOME}/data/typemap/osmNetconvert.typ.xml,${SUMO_HOME}/data/typemap/osmNetconvertUrbanDe.typ.xml,${SUMO_HOME}/data/typemap/osmNetconvertPedestrians.typ.xml,${SUMO_HOME}/data/typemap/osmNetconvertAerialway.typ.xml"/>
        <osm-files value="osm_bbox.osm.xml.gz"/>
    </input>

    <output>
        <output-file value="osm.net.xml.gz"/>
        <output.street-names value="true"/>
        <output.original-names value="true"/>
        <ptstop-output value="osm_stops.add.xml"/>
        <ptline-output value="osm_ptlines.xml"/>
    </output>

    <projection>
        <proj.utm value="true"/>
    </projection>

    <processing>
        <geometry.remove value="true"/>
        <roundabouts.guess value="true"/>
    </processing>

    <tls_building>
        <tls.discard-simple value="true"/>
        <tls.join value="true"/>
        <tls.guess-signals value="true"/>
        <tls.default-type value="actuated"/>
    </tls_building>

    <ramp_guessing>
        <ramps.guess value="true"/>
    </ramp_guessing>

    <junctions>
        <junctions.join value="true"/>
        <junctions.corner-detail value="5"/>
    </junctions>

    <pedestrian>
        <crossings.guess value="true"/>
    </pedestrian>

    <railway>
        <railway.topology.repair value="true"/>
    </railway>

    <formats>
        <osm.sidewalks value="true"/>
    </formats>

</configuration>
-->

<net version="1.16" junctionCornerDetail="5" walkingareas="true" limitTurnSpeed="5.50" xmlns:xsi="http://www.w3.org/2001/XMLSchema-instance" xsi:noNamespaceSchemaLocation="http://sumo.dlr.de/xsd/net_file.xsd">

    <location netOffset="-777986.69,-988327.26" convBoundary="0.00,0.00,1981.32,4559.09" origBoundary="125.528160,8.932285,125.545988,8.973562" projParameter="+proj=utm +zone=51 +ellps=WGS84 +datum=WGS84 +units=m +no_defs"/>

    <type id="aerialway.cable_car" priority="24" numLanes="1" speed="13.89" allow="rail_urban" oneway="0"/>
    <type id="aerialway.gondola" priority="23" numLanes="1" speed="13.89" allow="rail_urban" oneway="0"/>
    <type id="highway.bridleway" priority="1" numLanes="1" speed="2.78" allow="pedestrian" oneway="1" width="2.00"/>
    <type id="highway.bus_guideway" priority="1" numLanes="1" speed="13.89" allow="bus" oneway="1"/>
    <type id="highway.cycleway" priority="1" numLanes="1" speed="5.56" allow="bicycle" oneway="0" width="1.00"/>
    <type id="highway.footway" priority="1" numLanes="1" speed="2.78" allow="pedestrian" oneway="1" width="2.00"/>
    <type id="highway.ford" priority="1" numLanes="1" speed="2.78" allow="army" oneway="0"/>
    <type id="highway.living_street" priority="2" numLanes="1" speed="2.78" disallow="tram rail_urban rail rail_electric rail_fast ship" oneway="0"/>
    <type id="highway.motorway" priority="14" numLanes="2" speed="27.78" allow="private emergency authority army vip passenger hov taxi bus coach delivery truck trailer motorcycle evehicle custom1 custom2" oneway="1"/>
    <type id="highway.motorway_link" priority="9" numLanes="1" speed="16.67" allow="private emergency authority army vip passenger hov taxi bus coach delivery truck trailer motorcycle evehicle custom1 custom2" oneway="1"/>
    <type id="highway.path" priority="1" numLanes="1" speed="5.56" allow="pedestrian bicycle" oneway="0" width="2.00"/>
    <type id="highway.pedestrian" priority="1" numLanes="1" speed="2.78" allow="pedestrian" oneway="1" width="2.00"/>
    <type id="highway.primary" priority="12" numLanes="2" speed="13.89" disallow="pedestrian tram rail_urban rail rail_electric rail_fast ship" oneway="0" sidewalkWidth="3.00"/>
    <type id="highway.primary_link" priority="7" numLanes="1" speed="13.89" disallow="pedestrian tram rail_urban rail rail_electric rail_fast ship" oneway="0" sidewalkWidth="3.00"/>
    <type id="highway.raceway" priority="15" numLanes="2" speed="83.33" allow="vip" oneway="0"/>
    <type id="highway.residential" priority="3" numLanes="1" speed="13.89" disallow="pedestrian tram rail_urban rail rail_electric rail_fast ship" oneway="0" sidewalkWidth="2.00"/>
    <type id="highway.secondary" priority="11" numLanes="1" speed="13.89" disallow="pedestrian tram rail_urban rail rail_electric rail_fast ship" oneway="0" sidewalkWidth="3.00"/>
    <type id="highway.secondary_link" priority="6" numLanes="1" speed="13.89" disallow="pedestrian tram rail_urban rail rail_electric rail_fast ship" oneway="0" sidewalkWidth="3.00"/>
    <type id="highway.service" priority="1" numLanes="1" speed="5.56" allow="pedestrian delivery bicycle" oneway="0"/>
    <type id="highway.stairs" priority="1" numLanes="1" speed="1.39" allow="pedestrian" oneway="1" width="2.00"/>
    <type id="highway.step" priority="1" numLanes="1" speed="1.39" allow="pedestrian" oneway="1" width="2.00"/>
    <type id="highway.steps" priority="1" numLanes="1" speed="1.39" allow="pedestrian" oneway="1" width="2.00"/>
    <type id="highway.tertiary" priority="10" numLanes="1" speed="13.89" disallow="pedestrian tram rail_urban rail rail_electric rail_fast ship" oneway="0" sidewalkWidth="3.00"/>
    <type id="highway.tertiary_link" priority="5" numLanes="1" speed="13.89" disallow="pedestrian tram rail_urban rail rail_electric rail_fast ship" oneway="0" sidewalkWidth="2.00"/>
    <type id="highway.track" priority="1" numLanes="1" speed="5.56" allow="pedestrian motorcycle moped bicycle" oneway="0"/>
    <type id="highway.trunk" priority="13" numLanes="2" speed="13.89" disallow="pedestrian bicycle tram rail_urban rail rail_electric rail_fast ship" oneway="0"/>
    <type id="highway.trunk_link" priority="8" numLanes="1" speed="13.89" disallow="pedestrian bicycle tram rail_urban rail rail_electric rail_fast ship" oneway="0"/>
    <type id="highway.unclassified" priority="4" numLanes="1" speed="13.89" disallow="pedestrian tram rail_urban rail rail_electric rail_fast ship" oneway="0" sidewalkWidth="2.00"/>
    <type id="highway.unsurfaced" priority="1" numLanes="1" speed="8.33" disallow="tram rail_urban rail rail_electric rail_fast ship" oneway="0"/>
    <type id="railway.highspeed" priority="21" numLanes="1" speed="69.44" allow="rail_fast" oneway="1"/>
    <type id="railway.light_rail" priority="19" numLanes="1" speed="27.78" allow="rail_urban" oneway="1"/>
    <type id="railway.monorail" priority="22" numLanes="1" speed="27.78" allow="rail_urban" oneway="1"/>
    <type id="railway.preserved" priority="16" numLanes="1" speed="27.78" allow="rail" oneway="1"/>
    <type id="railway.rail" priority="20" numLanes="1" speed="44.44" allow="rail" oneway="1"/>
    <type id="railway.subway" priority="18" numLanes="1" speed="27.78" allow="rail_urban" oneway="1"/>
    <type id="railway.tram" priority="17" numLanes="1" speed="13.89" allow="tram" oneway="1"/>

    <edge id=":1318398106_0" function="internal">
        <lane id=":1318398106_0_0" index="0" disallow="pedestrian tram rail_urban rail rail_electric rail_fast ship" speed="6.63" length="3.64" shape="1502.69,1997.57 1502.18,1995.01 1501.69,1994.10"/>
    </edge>
    <edge id=":1318398106_1" function="internal">
        <lane id=":1318398106_1_0" index="0" disallow="pedestrian tram rail_urban rail rail_electric rail_fast ship" speed="8.33" length="14.88" shape="1502.69,1997.57 1501.36,1982.75"/>
    </edge>
    <edge id=":1318398106_2" function="internal">
        <lane id=":1318398106_2_0" index="0" disallow="pedestrian tram rail_urban rail rail_electric rail_fast ship" speed="3.65" length="1.44" shape="1502.69,1997.57 1503.38,1996.30"/>
    </edge>
    <edge id=":1318398106_10" function="internal">
        <lane id=":1318398106_10_0" index="0" disallow="pedestrian tram rail_urban rail rail_electric rail_fast ship" speed="6.63" length="4.93" shape="1501.69,1994.10 1501.18,1993.16 1499.71,1992.03 1497.75,1991.61"/>
    </edge>
    <edge id=":1318398106_11" function="internal">
        <lane id=":1318398106_11_0" index="0" disallow="pedestrian tram rail_urban rail rail_electric rail_fast ship" speed="3.65" length="3.23" shape="1503.38,1996.30 1504.13,1995.82 1504.97,1996.15 1505.88,1997.27"/>
    </edge>
    <edge id=":1318398106_3" function="internal">
        <lane id=":1318398106_3_0" index="0" disallow="pedestrian tram rail_urban rail rail_electric rail_fast ship" speed="5.95" length="7.56" shape="1509.06,1991.41 1507.47,1991.86 1506.41,1992.99 1505.88,1994.79 1505.88,1997.27"/>
    </edge>
    <edge id=":1318398106_4" function="internal">
        <lane id=":1318398106_4_0" index="0" disallow="pedestrian tram rail_urban rail rail_electric rail_fast ship" speed="8.33" length="11.17" shape="1509.06,1991.41 1497.75,1991.61"/>
        <lane id=":1318398106_4_1" index="1" disallow="pedestrian tram rail_urban rail rail_electric rail_fast ship" speed="8.33" length="11.17" shape="1508.87,1988.22 1497.83,1988.42"/>
    </edge>
    <edge id=":1318398106_6" function="internal">
        <lane id=":1318398106_6_0" index="0" disallow="pedestrian tram rail_urban rail rail_electric rail_fast ship" speed="7.02" length="10.52" shape="1508.87,1988.22 1505.76,1988.04 1503.48,1987.07 1502.01,1985.30 1501.36,1982.75"/>
    </edge>
    <edge id=":1318398106_7" function="internal">
        <lane id=":1318398106_7_0" index="0" disallow="pedestrian tram rail_urban rail rail_electric rail_fast ship" speed="8.33" length="14.84" shape="1504.55,1982.49 1505.88,1997.27"/>
    </edge>
    <edge id=":1318398106_8" function="internal">
        <lane id=":1318398106_8_0" index="0" disallow="pedestrian tram rail_urban rail rail_electric rail_fast ship" speed="6.71" length="2.91" shape="1504.55,1982.49 1504.32,1985.15 1504.19,1985.35"/>
    </edge>
    <edge id=":1318398106_9" function="internal">
        <lane id=":1318398106_9_0" index="0" disallow="pedestrian tram rail_urban rail rail_electric rail_fast ship" speed="3.65" length="1.44" shape="1504.55,1982.49 1503.85,1983.75"/>
    </edge>
    <edge id=":1318398106_12" function="internal">
        <lane id=":1318398106_12_0" index="0" disallow="pedestrian tram rail_urban rail rail_electric rail_fast ship" speed="6.71" length="7.54" shape="1504.19,1985.35 1503.12,1987.03 1500.96,1988.11 1497.83,1988.42"/>
    </edge>
    <edge id=":1318398106_13" function="internal">
        <lane id=":1318398106_13_0" index="0" disallow="pedestrian tram rail_urban rail rail_electric rail_fast ship" speed="3.65" length="3.23" shape="1503.85,1983.75 1503.08,1984.21 1502.25,1983.88 1501.36,1982.75"/>
    </edge>
    <edge id=":1318398106_c0" function="crossing" crossingEdges="167317226#3 -167317226#3">
        <lane id=":1318398106_c0_0" index="0" allow="pedestrian" speed="2.78" length="6.40" width="4.00" shape="1507.28,1995.13 1500.91,1995.72"/>
    </edge>
    <edge id=":1318398106_c1" function="crossing" crossingEdges="357045558#3">
        <lane id=":1318398106_c1_0" index="0" allow="pedestrian" speed="2.78" length="6.40" width="4.00" shape="1506.77,1986.74 1507.16,1993.13"/>
    </edge>
    <edge id=":1318398106_c2" function="crossing" crossingEdges="-167317226#2 167317226#2">
        <lane id=":1318398106_c2_0" index="0" allow="pedestrian" speed="2.78" length="6.40" width="4.00" shape="1499.93,1984.87 1506.31,1984.35"/>
    </edge>
    <edge id=":1318398106_c3" function="crossing" crossingEdges="357045558#4">
        <lane id=":1318398106_c3_0" index="0" allow="pedestrian" speed="2.78" length="6.40" width="4.00" shape="1499.71,1993.27 1499.88,1986.87"/>
    </edge>
    <edge id=":1318398106_w0" function="walkingarea">
        <lane id=":1318398106_w0_0" index="0" allow="pedestrian" speed="2.78" length="2.16" width="4.00" shape="1507.47,1997.12 1509.28,1995.01 1509.16,1993.01 1508.54,1993.16 1508.05,1993.52 1507.71,1994.10 1507.49,1994.89 1507.41,1995.90"/>
    </edge>
    <edge id=":1318398106_w1" function="walkingarea">
        <lane id=":1318398106_w1_0" index="0" allow="pedestrian" speed="2.78" length="2.46" width="4.00" shape="1508.77,1986.62 1508.65,1984.63 1506.14,1982.36 1506.32,1983.70 1506.59,1984.79 1506.98,1985.63 1507.47,1986.21 1508.07,1986.54"/>
    </edge>
    <edge id=":1318398106_w2" function="walkingarea">
        <lane id=":1318398106_w2_0" index="0" allow="pedestrian" speed="2.78" length="2.16" width="4.00" shape="1499.77,1982.87 1497.93,1984.82 1497.88,1986.82 1498.54,1986.72 1499.07,1986.40 1499.45,1985.86 1499.70,1985.09 1499.80,1984.09"/>
    </edge>
    <edge id=":1318398106_w3" function="walkingarea">
        <lane id=":1318398106_w3_0" index="0" allow="pedestrian" speed="2.78" length="2.85" width="4.00" shape="1497.71,1993.21 1497.66,1995.21 1501.10,1997.72 1500.89,1996.36 1500.54,1995.25 1500.04,1994.38 1499.41,1993.75 1498.63,1993.36"/>
    </edge>
    <edge id=":1318398107_0" function="internal">
        <lane id=":1318398107_0_0" index="0" disallow="pedestrian tram rail_urban rail rail_electric rail_fast ship" speed="6.37" length="8.51" shape="1573.28,1683.85 1570.43,1684.33 1568.43,1685.21 1567.28,1686.49 1566.99,1688.18"/>
    </edge>
    <edge id=":1318398107_1" function="internal">
        <lane id=":1318398107_1_0" index="0" disallow="pedestrian tram rail_urban rail rail_electric rail_fast ship" speed="16.67" length="17.99" shape="1573.28,1683.85 1555.40,1685.49"/>
        <lane id=":1318398107_1_1" index="1" disallow="pedestrian tram rail_urban rail rail_electric rail_fast ship" speed="16.67" length="17.99" shape="1573.00,1680.66 1555.07,1682.31"/>
    </edge>
    <edge id=":1318398107_3" function="internal">
        <lane id=":1318398107_3_0" index="0" disallow="pedestrian tram rail_urban rail rail_electric rail_fast ship" speed="8.91" length="5.68" shape="1573.00,1680.66 1567.32,1680.49"/>
    </edge>
    <edge id=":1318398107_4" function="internal">
        <lane id=":1318398107_4_0" index="0" disallow="pedestrian tram rail_urban rail rail_electric rail_fast ship" speed="3.65" length="1.44" shape="1573.00,1680.66 1571.74,1679.96"/>
    </edge>
    <edge id=":1318398107_15" function="internal">
        <lane id=":1318398107_15_0" index="0" disallow="pedestrian tram rail_urban rail rail_electric rail_fast ship" speed="8.91" length="12.93" shape="1567.32,1680.49 1563.22,1678.89 1560.70,1675.85 1559.75,1671.38"/>
    </edge>
    <edge id=":1318398107_16" function="internal">
        <lane id=":1318398107_16_0" index="0" disallow="pedestrian tram rail_urban rail rail_electric rail_fast ship" speed="3.65" length="3.23" shape="1571.74,1679.96 1571.27,1679.20 1571.60,1678.37 1572.73,1677.47"/>
    </edge>
    <edge id=":1318398107_5" function="internal">
        <lane id=":1318398107_5_0" index="0" disallow="pedestrian tram rail_urban rail rail_electric rail_fast ship" speed="6.96" length="10.92" shape="1562.95,1671.28 1563.59,1672.90 1565.38,1673.93 1568.34,1674.40 1572.46,1674.28"/>
    </edge>
    <edge id=":1318398107_6" function="internal">
        <lane id=":1318398107_6_0" index="0" disallow="pedestrian tram rail_urban rail rail_electric rail_fast ship" speed="8.33" length="17.30" shape="1562.95,1671.28 1563.61,1676.37 1564.84,1679.74 1566.14,1683.10 1566.99,1688.18"/>
        <lane id=":1318398107_6_1" index="1" disallow="pedestrian tram rail_urban rail rail_electric rail_fast ship" speed="8.33" length="17.30" shape="1562.95,1671.28 1563.80,1688.40"/>
    </edge>
    <edge id=":1318398107_8" function="internal">
        <lane id=":1318398107_8_0" index="0" disallow="pedestrian tram rail_urban rail rail_electric rail_fast ship" speed="8.48" length="15.18" shape="1562.95,1671.28 1562.57,1675.79 1561.13,1679.13 1558.63,1681.31 1555.07,1682.31"/>
    </edge>
    <edge id=":1318398107_9" function="internal">
        <lane id=":1318398107_9_0" index="0" disallow="pedestrian tram rail_urban rail rail_electric rail_fast ship" speed="3.65" length="4.67" shape="1562.95,1671.28 1562.19,1672.51 1561.40,1672.93 1560.59,1672.56 1559.75,1671.38"/>
    </edge>
    <edge id=":1318398107_10" function="internal">
        <lane id=":1318398107_10_0" index="0" disallow="pedestrian tram rail_urban rail rail_electric rail_fast ship" speed="6.27" length="2.31" shape="1554.41,1675.95 1556.67,1675.47"/>
    </edge>
    <edge id=":1318398107_11" function="internal">
        <lane id=":1318398107_11_0" index="0" disallow="pedestrian tram rail_urban rail rail_electric rail_fast ship" speed="16.67" length="18.10" shape="1554.41,1675.95 1572.46,1674.28"/>
        <lane id=":1318398107_11_1" index="1" disallow="pedestrian tram rail_urban rail rail_electric rail_fast ship" speed="16.67" length="18.10" shape="1554.74,1679.13 1572.73,1677.47"/>
    </edge>
    <edge id=":1318398107_13" function="internal">
        <lane id=":1318398107_13_0" index="0" disallow="pedestrian tram rail_urban rail rail_electric rail_fast ship" speed="8.08" length="3.71" shape="1554.74,1679.13 1558.44,1679.38"/>
    </edge>
    <edge id=":1318398107_14" function="internal">
        <lane id=":1318398107_14_0" index="0" disallow="pedestrian tram rail_urban rail rail_electric rail_fast ship" speed="3.65" length="1.44" shape="1554.74,1679.13 1556.01,1679.80"/>
    </edge>
    <edge id=":1318398107_17" function="internal">
        <lane id=":1318398107_17_0" index="0" disallow="pedestrian tram rail_urban rail rail_electric rail_fast ship" speed="6.27" length="5.53" shape="1556.67,1675.47 1556.79,1675.45 1558.48,1674.52 1559.46,1673.17 1559.75,1671.38"/>
    </edge>
    <edge id=":1318398107_18" function="internal">
        <lane id=":1318398107_18_0" index="0" disallow="pedestrian tram rail_urban rail rail_electric rail_fast ship" speed="8.08" length="11.15" shape="1558.44,1679.38 1561.18,1681.01 1562.97,1684.02 1563.80,1688.40"/>
    </edge>
    <edge id=":1318398107_19" function="internal">
        <lane id=":1318398107_19_0" index="0" disallow="pedestrian tram rail_urban rail rail_electric rail_fast ship" speed="3.65" length="3.23" shape="1556.01,1679.80 1556.49,1680.56 1556.18,1681.39 1555.07,1682.31"/>
    </edge>
    <edge id=":1318398107_c0" function="crossing" crossingEdges="167317172#0">
        <lane id=":1318398107_c0_0" index="0" allow="pedestrian" speed="2.78" length="6.40" width="4.00" shape="1568.45,1686.07 1562.06,1686.52"/>
    </edge>
    <edge id=":1318398107_c1" function="crossing" crossingEdges="-117031001#1 117031001#1">
        <lane id=":1318398107_c1_0" index="0" allow="pedestrian" speed="2.78" length="6.40" width="4.00" shape="1558.21,1673.43 1564.61,1673.24"/>
    </edge>
    <edge id=":1318398107_w0" function="walkingarea">
        <lane id=":1318398107_w0_0" index="0" allow="pedestrian" speed="2.78" length="2.50" width="4.00" shape="1559.21,1688.72 1562.20,1688.51 1561.97,1687.89 1561.40,1687.42 1560.47,1687.11 1559.18,1686.95 1557.55,1686.94"/>
    </edge>
    <edge id=":1318398107_w1" function="walkingarea">
        <lane id=":1318398107_w1_0" index="0" allow="pedestrian" speed="2.78" length="2.50" width="4.00" shape="1568.58,1688.07 1571.58,1687.86 1571.90,1685.63 1570.66,1685.92 1569.71,1686.31 1569.05,1686.80 1568.68,1687.38"/>
    </edge>
    <edge id=":1318398107_w2" function="walkingarea">
        <lane id=":1318398107_w2_0" index="0" allow="pedestrian" speed="2.78" length="2.24" width="4.00" shape="1566.55,1671.18 1564.55,1671.24 1564.78,1671.86 1565.44,1672.34 1566.53,1672.65 1568.03,1672.82 1569.97,1672.83"/>
    </edge>
    <edge id=":1318398107_w3" function="walkingarea">
        <lane id=":1318398107_w3_0" index="0" allow="pedestrian" speed="2.78" length="2.24" width="4.00" shape="1558.15,1671.43 1556.15,1671.49 1555.46,1674.16 1556.45,1673.85 1557.21,1673.42 1557.75,1672.87 1558.07,1672.21"/>
    </edge>
    <edge id=":1318398109_0" function="internal">
        <lane id=":1318398109_0_0" index="0" disallow="pedestrian tram rail_urban rail rail_electric rail_fast ship" speed="6.47" length="9.25" shape="1594.81,1986.76 1592.08,1987.12 1590.18,1988.14 1589.10,1989.81 1588.84,1992.15"/>
        <lane id=":1318398109_0_1" index="1" disallow="pedestrian tram rail_urban rail rail_electric rail_fast ship" speed="7.97" length="14.60" shape="1594.78,1983.56 1590.59,1984.14 1587.67,1985.80 1586.03,1988.53 1585.65,1992.34"/>
    </edge>
    <edge id=":1318398109_2" function="internal">
        <lane id=":1318398109_2_0" index="0" disallow="pedestrian tram rail_urban rail rail_electric rail_fast ship" speed="8.33" length="15.91" shape="1594.78,1983.56 1590.11,1984.08 1587.00,1985.19 1583.89,1986.38 1579.22,1987.13"/>
        <lane id=":1318398109_2_1" index="1" disallow="pedestrian tram rail_urban rail rail_electric rail_fast ship" speed="8.33" length="15.91" shape="1594.78,1983.56 1579.03,1983.94"/>
    </edge>
    <edge id=":1318398109_4" function="internal">
        <lane id=":1318398109_4_0" index="0" disallow="pedestrian tram rail_urban rail rail_electric rail_fast ship" speed="8.33" length="13.94" shape="1587.98,1978.22 1588.84,1992.15"/>
        <lane id=":1318398109_4_1" index="1" disallow="pedestrian tram rail_urban rail rail_electric rail_fast ship" speed="8.33" length="13.94" shape="1584.79,1978.44 1585.65,1992.34"/>
    </edge>
    <edge id=":1318398109_6" function="internal">
        <lane id=":1318398109_6_0" index="0" disallow="pedestrian tram rail_urban rail rail_electric rail_fast ship" speed="6.51" length="9.08" shape="1584.79,1978.44 1584.56,1980.70 1583.53,1982.38 1581.68,1983.45 1579.03,1983.94"/>
    </edge>
    <edge id=":1318398109_c0" function="crossing" crossingEdges="357045569#0">
        <lane id=":1318398109_c0_0" index="0" allow="pedestrian" speed="2.78" length="6.40" width="4.00" shape="1590.32,1990.05 1583.93,1990.43"/>
    </edge>
    <edge id=":1318398109_c1" function="crossing" crossingEdges="357045558#2">
        <lane id=":1318398109_c1_0" index="0" allow="pedestrian" speed="2.78" length="6.40" width="4.00" shape="1592.77,1981.98 1592.83,1988.38"/>
    </edge>
    <edge id=":1318398109_c2" function="crossing" crossingEdges="167317172#2">
        <lane id=":1318398109_c2_0" index="0" allow="pedestrian" speed="2.78" length="6.40" width="4.00" shape="1583.33,1980.55 1589.72,1980.11"/>
    </edge>
    <edge id=":1318398109_c3" function="crossing" crossingEdges="357045558#3">
        <lane id=":1318398109_c3_0" index="0" allow="pedestrian" speed="2.78" length="6.40" width="4.00" shape="1581.32,1988.61 1580.93,1982.22"/>
    </edge>
    <edge id=":1318398109_w0" function="walkingarea">
        <lane id=":1318398109_w0_0" index="0" allow="pedestrian" speed="2.78" length="3.48" width="4.00" shape="1579.32,1988.73 1579.44,1990.72 1581.06,1992.61 1584.05,1992.43 1583.85,1991.22 1583.42,1990.25 1582.75,1989.52 1581.84,1989.02 1580.70,1988.75"/>
    </edge>
    <edge id=":1318398109_w1" function="walkingarea">
        <lane id=":1318398109_w1_0" index="0" allow="pedestrian" speed="2.78" length="3.32" width="4.00" shape="1590.44,1992.05 1593.43,1991.87 1594.85,1990.36 1594.83,1988.36 1593.43,1988.48 1592.29,1988.79 1591.43,1989.31 1590.83,1990.02 1590.50,1990.94"/>
    </edge>
    <edge id=":1318398109_w2" function="walkingarea">
        <lane id=":1318398109_w2_0" index="0" allow="pedestrian" speed="2.78" length="3.75" width="4.00" shape="1594.77,1981.96 1594.75,1979.96 1592.57,1977.91 1589.58,1978.11 1589.80,1979.30 1590.28,1980.27 1591.01,1981.02 1592.01,1981.55 1593.26,1981.87"/>
    </edge>
    <edge id=":1318398109_w3" function="walkingarea">
        <lane id=":1318398109_w3_0" index="0" allow="pedestrian" speed="2.78" length="3.29" width="4.00" shape="1583.19,1978.55 1580.20,1978.76 1578.81,1980.34 1578.93,1982.34 1580.30,1982.16 1581.41,1981.80 1582.25,1981.25 1582.83,1980.53 1583.14,1979.63"/>
    </edge>
    <edge id=":1489244118_0" function="internal">
        <lane id=":1489244118_0_0" index="0" disallow="pedestrian tram rail_urban rail rail_electric rail_fast ship" speed="6.07" length="7.56" shape="1794.14,1516.74 1791.67,1517.13 1789.92,1517.91 1788.89,1519.07 1788.60,1520.63"/>
    </edge>
    <edge id=":1489244118_1" function="internal">
        <lane id=":1489244118_1_0" index="0" disallow="pedestrian tram rail_urban rail rail_electric rail_fast ship" speed="13.89" length="14.62" shape="1794.14,1516.74 1790.46,1516.75 1786.85,1516.43 1783.24,1516.07 1779.55,1515.94"/>
    </edge>
    <edge id=":1489244118_2" function="internal">
        <lane id=":1489244118_2_0" index="0" disallow="pedestrian tram rail_urban rail rail_electric rail_fast ship" speed="3.65" length="4.67" shape="1794.14,1516.74 1792.89,1516.03 1792.44,1515.26 1792.78,1514.43 1793.93,1513.55"/>
    </edge>
    <edge id=":1489244118_3" function="internal">
        <lane id=":1489244118_3_0" index="0" disallow="pedestrian tram rail_urban rail rail_electric rail_fast ship" speed="5.97" length="3.40" shape="1788.13,1510.28 1788.56,1511.85 1789.67,1512.92 1789.88,1512.99"/>
    </edge>
    <edge id=":1489244118_4" function="internal">
        <lane id=":1489244118_4_0" index="0" disallow="pedestrian tram rail_urban rail rail_electric rail_fast ship" speed="8.33" length="10.35" shape="1788.13,1510.28 1788.60,1520.63"/>
        <lane id=":1489244118_4_1" index="1" disallow="pedestrian tram rail_urban rail rail_electric rail_fast ship" speed="8.33" length="10.35" shape="1784.93,1510.44 1785.40,1520.76"/>
    </edge>
    <edge id=":1489244118_6" function="internal">
        <lane id=":1489244118_6_0" index="0" disallow="pedestrian tram rail_urban rail rail_electric rail_fast ship" speed="6.38" length="8.83" shape="1784.93,1510.44 1784.70,1512.80 1783.72,1514.51 1782.01,1515.55 1779.55,1515.94"/>
    </edge>
    <edge id=":1489244118_7" function="internal">
        <lane id=":1489244118_7_0" index="0" disallow="pedestrian tram rail_urban rail rail_electric rail_fast ship" speed="5.97" length="4.13" shape="1789.88,1512.99 1791.46,1513.49 1793.93,1513.55"/>
    </edge>
    <edge id=":1489244118_c0" function="crossing" crossingEdges="57011499#2">
        <lane id=":1489244118_c0_0" index="0" allow="pedestrian" speed="2.78" length="6.40" width="4.00" shape="1790.12,1518.57 1783.72,1518.82"/>
    </edge>
    <edge id=":1489244118_c1" function="crossing" crossingEdges="-135620024#1 135620024#1">
        <lane id=":1489244118_c1_0" index="0" allow="pedestrian" speed="2.78" length="6.40" width="4.00" shape="1791.82,1512.09 1792.26,1518.48"/>
    </edge>
    <edge id=":1489244118_c2" function="crossing" crossingEdges="57011499#1">
        <lane id=":1489244118_c2_0" index="0" allow="pedestrian" speed="2.78" length="6.40" width="4.00" shape="1783.43,1512.52 1789.83,1512.19"/>
    </edge>
    <edge id=":1489244118_c3" function="crossing" crossingEdges="850015580">
        <lane id=":1489244118_c3_0" index="0" allow="pedestrian" speed="2.78" length="3.20" width="4.00" shape="1781.59,1517.50 1781.52,1514.30"/>
    </edge>
    <edge id=":1489244118_w0" function="walkingarea">
        <lane id=":1489244118_w0_0" index="0" allow="pedestrian" speed="2.78" length="2.78" width="4.00" shape="1779.59,1517.54 1781.81,1520.90 1783.80,1520.82 1783.65,1519.80 1783.28,1518.96 1782.68,1518.32 1781.87,1517.87 1780.84,1517.61"/>
    </edge>
    <edge id=":1489244118_w1" function="walkingarea">
        <lane id=":1489244118_w1_0" index="0" allow="pedestrian" speed="2.78" length="2.23" width="4.00" shape="1790.20,1520.56 1792.20,1520.48 1794.25,1518.34 1792.99,1518.48 1791.97,1518.71 1791.17,1519.04 1790.61,1519.45 1790.29,1519.96"/>
    </edge>
    <edge id=":1489244118_w2" function="walkingarea">
        <lane id=":1489244118_w2_0" index="0" allow="pedestrian" speed="2.78" length="2.16" width="4.00" shape="1793.82,1511.96 1791.72,1510.09 1789.72,1510.20 1789.87,1510.81 1790.22,1511.29 1790.80,1511.65 1791.59,1511.88 1792.60,1511.98"/>
    </edge>
    <edge id=":1489244118_w3" function="walkingarea">
        <lane id=":1489244118_w3_0" index="0" allow="pedestrian" speed="2.78" length="2.89" width="4.00" shape="1783.33,1510.52 1781.33,1510.62 1779.52,1514.34 1780.74,1514.21 1781.72,1513.88 1782.47,1513.35 1782.99,1512.61 1783.28,1511.67"/>
    </edge>
    <edge id=":1489244119_0" function="internal">
        <lane id=":1489244119_0_0" index="0" disallow="pedestrian tram rail_urban rail rail_electric rail_fast ship" speed="8.33" length="6.11" shape="1700.72,1520.98 1700.26,1514.92"/>
        <lane id=":1489244119_0_1" index="1" disallow="pedestrian tram rail_urban rail rail_electric rail_fast ship" speed="8.33" length="6.11" shape="1703.91,1520.76 1703.45,1514.65"/>
    </edge>
    <edge id=":1489244119_2" function="internal">
        <lane id=":1489244119_2_0" index="0" disallow="pedestrian tram rail_urban rail rail_electric rail_fast ship" speed="6.15" length="7.57" shape="1709.87,1517.33 1707.15,1517.21 1705.17,1516.72 1703.94,1515.87 1703.45,1514.65"/>
    </edge>
    <edge id=":1489244119_c0" function="crossing" crossingEdges="57011500#2">
        <lane id=":1489244119_c0_0" index="0" allow="pedestrian" speed="2.78" length="6.40" width="4.00" shape="1705.37,1518.66 1698.99,1519.09"/>
    </edge>
    <edge id=":1489244119_c1" function="crossing" crossingEdges="850015580">
        <lane id=":1489244119_c1_0" index="0" allow="pedestrian" speed="2.78" length="3.20" width="4.00" shape="1707.84,1515.77 1707.90,1518.97"/>
    </edge>
    <edge id=":1489244119_c2" function="crossing" crossingEdges="57011500#3">
        <lane id=":1489244119_c2_0" index="0" allow="pedestrian" speed="2.78" length="6.40" width="4.00" shape="1698.84,1517.04 1705.21,1516.51"/>
    </edge>
    <edge id=":1489244119_w0" function="walkingarea">
        <lane id=":1489244119_w0_0" index="0" allow="pedestrian" speed="2.78" length="3.62" width="4.00" shape="1699.00,1519.03 1698.67,1515.05 1695.68,1515.30 1696.13,1521.29 1699.12,1521.09 1698.85,1517.09"/>
    </edge>
    <edge id=":1489244119_w1" function="walkingarea">