<?xml version="1.0" encoding="UTF-8"?>

<!-- generated on 2024-03-09 13:04:42.181967 by osmWebWizard.py v1_17_0+0000-737931d58da
<configuration>
    <net-file value="C:\Users\IVY\Sumo\2024-03-09-13-04-34\osm.net.xml.gz"/>
    <output-trip-file value="C:\Users\IVY\Sumo\2024-03-09-13-04-34\osm.motorcycle.trips.xml"/>
    <route-file value="C:\Users\IVY\Sumo\2024-03-09-13-04-34\osm.motorcycle.rou.xml"/>
    <prefix value="motorcycle"/>
    <trip-attributes value="departLane=&quot;best&quot;"/>
    <fringe-start-attributes value="departSpeed=&quot;max&quot;"/>
    <fringe-factor value="2"/>
    <max-distance value="1200.0"/>
    <vclass value="motorcycle"/>
    <vehicle-class value="motorcycle"/>
    <remove-loops value="True"/>
    <via-edge-types value="highway.motorway,highway.motorway_link,highway.trunk_link,highway.primary_link,highway.secondary_link,highway.tertiary_link"/>
    <validate value="True"/>
    <insertion-density value="4.0"/>
</configuration>
-->

<!-- generated on 2024-03-09 13:04:42 by Eclipse SUMO duarouter Version 1.17.0
<configuration xmlns:xsi="http://www.w3.org/2001/XMLSchema-instance" xsi:noNamespaceSchemaLocation="http://sumo.dlr.de/xsd/duarouterConfiguration.xsd">

    <input>
        <net-file value="C:\Users\IVY\Sumo\2024-03-09-13-04-34\osm.net.xml.gz"/>
        <route-files value="C:\Users\IVY\Sumo\2024-03-09-13-04-34\osm.motorcycle.trips.xml"/>
    </input>

    <output>
        <output-file value="C:\Users\IVY\Sumo\2024-03-09-13-04-34\osm.motorcycle.trips.xml.tmp"/>
        <alternatives-output value="NUL"/>
        <write-trips value="true"/>
    </output>

    <processing>
        <remove-loops value="true"/>
    </processing>

    <time>
        <begin value="0.0"/>
        <end value="3600.0"/>
    </time>

    <report>
        <no-warnings value="true"/>
        <ignore-errors value="true"/>
        <no-step-log value="true"/>
    </report>

</configuration>
-->

<routes xmlns:xsi="http://www.w3.org/2001/XMLSchema-instance" xsi:noNamespaceSchemaLocation="http://sumo.dlr.de/xsd/routes_file.xsd">
    <vType id="motorcycle_motorcycle" vClass="motorcycle"/>
    <trip id="motorcycle0" type="motorcycle_motorcycle" depart="0.00" departLane="best" from="169562129#3" to="-166219910"/>
    <trip id="motorcycle1" type="motorcycle_motorcycle" depart="17.70" departLane="best" departSpeed="max" from="-357045553#3" to="-227750944#1"/>
    <trip id="motorcycle2" type="motorcycle_motorcycle" depart="35.40" departLane="best" from="227750944#4" to="167317250"/>
    <trip id="motorcycle3" type="motorcycle_motorcycle" depart="53.10" departLane="best" from="57011499#2" to="166219960#0"/>
    <trip id="motorcycle4" type="motorcycle_motorcycle" depart="70.79" departLane="best" from="166219897#3" to="-166219910"/>
    <trip id="motorcycle5" type="motorcycle_motorcycle" depart="88.49" departLane="best" departSpeed="max" from="-227744471#3" to="166219967#1"/>
    <trip id="motorcycle6" type="motorcycle_motorcycle" depart="106.19" departLane="best" from="-166219913#0" to="227494446#1"/>
    <trip id="motorcycle7" type="motorcycle_motorcycle" depart="123.89" departLane="best" from="169680951#2" to="166220883#0"/>
    <trip id="motorcycle8" type="motorcycle_motorcycle" depart="141.59" departLane="best" departSpeed="max" from="-227744471#3" to="339112712#8"/>
    <trip id="motorcycle9" type="motorcycle_motorcycle" depart="159.29" departLane="best" from="339112712#9" to="-135620024#0"/>
    <trip id="motorcycle10" type="motorcycle_motorcycle" depart="176.99" departLane="best" from="169557779#2" to="227750944#5"/>
    <trip id="motorcycle11" type="motorcycle_motorcycle" depart="194.69" departLane="best" from="-724017860#0" to="167317226#2"/>
    <trip id="motorcycle12" type="motorcycle_motorcycle" depart="212.38" departLane="best" departSpeed="max" from="691299759" to="-724017861#1"/>
    <trip id="motorcycle13" type="motorcycle_motorcycle" depart="230.08" departLane="best" departSpeed="max" from="-166219956#4" to="-166219967#0"/>
    <trip id="motorcycle14" type="motorcycle_motorcycle" depart="247.78" departLane="best" from="357045565#2" to="169562129#3"/>
    <trip id="motorcycle15" type="motorcycle_motorcycle" depart="265.48" departLane="best" from="339112712#8" to="-339112690#4"/>
    <trip id="motorcycle16" type="motorcycle_motorcycle" depart="283.18" departLane="best" from="-166219967#2" to="-877391419"/>
    <trip id="motorcycle17" type="motorcycle_motorcycle" depart="300.88" departLane="best" departSpeed="max" from="-986104609" to="167317050"/>
    <trip id="motorcycle18" type="motorcycle_motorcycle" depart="318.58" departLane="best" from="-357045553#2" to="169680951#4"/>
    <trip id="motorcycle19" type="motorcycle_motorcycle" depart="336.27" departLane="best" from="357045569#0" to="-167317226#4"/>
    <trip id="motorcycle20" type="motorcycle_motorcycle" depart="353.97" departLane="best" from="227744471#0" to="-166219927#3"/>
    <trip id="motorcycle21" type="motorcycle_motorcycle" depart="371.67" departLane="best" from="227750944#2" to="-57016687#2"/>
    <trip id="motorcycle22" type="motorcycle_motorcycle" depart="389.37" departLane="best" from="-166219954#1" to="-227750944#4"/>
    <trip id="motorcycle23" type="motorcycle_motorcycle" depart="407.07" departLane="best" from="166219960#1" to="-57011498#1"/>
    <trip id="motorcycle24" type="motorcycle_motorcycle" depart="424.77" departLane="best" from="169562129#2" to="-117031001#1"/>
    <trip id="motorcycle25" type="motorcycle_motorcycle" depart="442.47" departLane="best" departSpeed="max" from="-986104608" to="-227744471#0"/>
    <trip id="motorcycle26" type="motorcycle_motorcycle" depart="460.16" departLane="best" from="-357045553#0" to="724017862#0"/>
    <trip id="motorcycle27" type="motorcycle_motorcycle" depart="477.86" departLane="best" from="-169680951#2" to="-169680951#1"/>
    <trip id="motorcycle28" type="motorcycle_motorcycle" depart="495.56" departLane="best" from="-169680951#2" to="-339112690#4"/>
    <trip id="motorcycle29" type="motorcycle_motorcycle" depart="513.26" departLane="best" from="-167317226#4" to="166219897#2"/>
    <trip id="motorcycle30" type="motorcycle_motorcycle" depart="530.96" departLane="best" from="860949155" to="169680965#3"/>
    <trip id="motorcycle31" type="motorcycle_motorcycle" depart="548.66" departLane="best" departSpeed="max" from="166219972#0" to="-227750944#1"/>
    <trip id="motorcycle32" type="motorcycle_motorcycle" depart="566.36" departLane="best" from="227750944#3" to="-166219913#0"/>
    <trip id="motorcycle33" type="motorcycle_motorcycle" depart="584.06" departLane="best" from="-57017120#2" to="357045553#1"/>
    <trip id="motorcycle34" type="motorcycle_motorcycle" depart="601.75" departLane="best" from="-227744471#0" to="850015580"/>
    <trip id="motorcycle35" type="motorcycle_motorcycle" depart="619.45" departLane="best" from="443996534#3" to="57017120#5"/>
    <trip id="motorcycle36" type="motorcycle_motorcycle" depart="637.15" departLane="best" from="169680951#4" to="166219909"/>
    <trip id="motorcycle37" type="motorcycle_motorcycle" depart="654.85" departLane="best" departSpeed="max" from="57016687#0" to="166219954#1"/>
    <trip id="motorcycle38" type="motorcycle_motorcycle" depart="672.55" departLane="best" from="-339112691#1" to="-339112690#1"/>
    <trip id="motorcycle39" type="motorcycle_motorcycle" depart="690.25" departLane="best" from="166219972#1" to="339112691#0"/>
    <trip id="motorcycle40" type="motorcycle_motorcycle" depart="707.95" departLane="best" from="-166220883#0" to="57017120#1"/>
    <trip id="motorcycle41" type="motorcycle_motorcycle" depart="725.64" departLane="best" from="877391419" to="166219967#3"/>
    <trip id="motorcycle42" type="motorcycle_motorcycle" depart="743.34" departLane="best" departSpeed="max" from="-166219956#4" to="-166219944#0"/>
    <trip id="motorcycle43" type="motorcycle_motorcycle" depart="761.04" departLane="best" from="166219967#0" to="-169680951#7"/>
    <trip id="motorcycle44" type="motorcycle_motorcycle" depart="778.74" departLane="best" from="339112712#3" to="166219927#3"/>
    <trip id="motorcycle45" type="motorcycle_motorcycle" depart="796.44" departLane="best" from="-166219947" to="166219897#2"/>
    <trip id="motorcycle46" type="motorcycle_motorcycle" depart="814.14" departLane="best" from="868986732" to="-166219972#2"/>
    <trip id="motorcycle47" type="motorcycle_motorcycle" depart="831.84" departLane="best" from="724017861#0" to="166219954#0"/>
    <trip id="motorcycle48" type="motorcycle_motorcycle" depart="849.53" departLane="best" from="-135620024#1" to="-339112690#1"/>
    <trip id="motorcycle49" type="motorcycle_motorcycle" depart="867.23" departLane="best" from="169680966#3" to="-166220853"/>
    <trip id="motorcycle50" type="motorcycle_motorcycle" depart="884.93" departLane="best" from="-357045553#0" to="169680965#3"/>
    <trip id="motorcycle51" type="motorcycle_motorcycle" depart="902.63" departLane="best" from="-166219967#0" to="166219944#1"/>
    <trip id="motorcycle52" type="motorcycle_motorcycle" depart="920.33" departLane="best" from="166219927#1" to="850016092"/>
    <trip id="motorcycle53" type="motorcycle_motorcycle" depart="938.03" departLane="best" from="443996534#3" to="-339112691#1"/>
    <trip id="motorcycle54" type="motorcycle_motorcycle" depart="955.73" departLane="best" from="-166219956#3" to="-169680951#5"/>
    <trip id="motorcycle55" type="motorcycle_motorcycle" depart="973.43" departLane="best" departSpeed="max" from="57016687#0" to="57011500#0"/>
    <trip id="motorcycle56" type="motorcycle_motorcycle" depart="991.12" departLane="best" from="-57016687#2" to="169680965#3"/>
    <trip id="motorcycle57" type="motorcycle_motorcycle" depart="1008.82" departLane="best" from="167317226#1" to="-167317226#1"/>
    <trip id="motorcycle58" type="motorcycle_motorcycle" depart="1026.52" departLane="best" from="339112690#1" to="166220873#0"/>
    <trip id="motorcycle59" type="motorcycle_motorcycle" depart="1044.22" departLane="best" from="-339112691#1" to="-166219972#2"/>
    <trip id="motorcycle60" type="motorcycle_motorcycle" depart="1061.92" departLane="best" from="117031001#0" to="-691299759"/>
    <trip id="motorcycle61" type="motorcycle_motorcycle" depart="1079.62" departLane="best" from="-166219907#2" to="724017860#1"/>
    <trip id="motorcycle62" type="motorcycle_motorcycle" depart="1097.32" departLane="best" from="57011498#0" to="357045569#0"/>
    <trip id="motorcycle63" type="motorcycle_motorcycle" depart="1115.01" departLane="best" from="-57017120#0" to="-166219947"/>
    <trip id="motorcycle64" type="motorcycle_motorcycle" depart="1132.71" departLane="best" from="443996534#3" to="850015581"/>
    <trip id="motorcycle65" type="motorcycle_motorcycle" depart="1150.41" departLane="best" from="-166219956#1" to="166219960#3"/>
    <trip id="motorcycle66" type="motorcycle_motorcycle" depart="1168.11" departLane="best" from="-166219949#1" to="339112712#8"/>
    <trip id="motorcycle67" type="motorcycle_motorcycle" depart="1185.81" departLane="best" from="339112690#3" to="-166220841#1"/>
    <trip id="motorcycle68" type="motorcycle_motorcycle" depart="1203.51" departLane="best" from="166219947" to="167317050"/>
    <trip id="motorcycle69" type="motorcycle_motorcycle" depart="1221.21" departLane="best" from="339112691#0" to="57011500#0"/>
    <trip id="motorcycle70" type="motorcycle_motorcycle" depart="1238.90" departLane="best" from="166219897#3" to="227744471#1"/>
    <trip id="motorcycle71" type="motorcycle_motorcycle" depart="1256.60" departLane="best" from="166219967#3" to="-339112690#5"/>
    <trip id="motorcycle72" type="motorcycle_motorcycle" depart="1274.30" departLane="best" from="-227494432" to="-57017120#4"/>
    <trip id="motorcycle73" type="motorcycle_motorcycle" depart="1292.00" departLane="best" from="868986732" to="169680966#4"/>
    <trip id="motorcycle74" type="motorcycle_motorcycle" depart="1309.70" departLane="best" departSpeed="max" from="166219910" to="166219968#1"/>
    <trip id="motorcycle75" type="motorcycle_motorcycle" depart="1327.40" departLane="best" from="-166219967#3" to="-227750944#2"/>
    <trip id="motorcycle76" type="motorcycle_motorcycle" depart="1345.10" departLane="best" from="-724017860#0" to="169557779#1"/>
    <trip id="motorcycle77" type="motorcycle_motorcycle" depart="1362.80" departLane="best" from="166219949#1" to="169680965#1"/>
    <trip id="motorcycle78" type="motorcycle_motorcycle" depart="1380.49" departLane="best" from="227750944#3" to="57017120#3"/>
    <trip id="motorcycle79" type="motorcycle_motorcycle" depart="1398.19" departLane="best" from="357045569#0" to="166219954#0"/>
    <trip id="motorcycle80" type="motorcycle_motorcycle" depart="1415.89" departLane="best" departSpeed="max" from="-227827182" to="227744471#3"/>
    <trip id="motorcycle81" type="motorcycle_motorcycle" depart="1433.59" departLane="best" from="227744471#1" to="-166220853"/>
    <trip id="motorcycle82" type="motorcycle_motorcycle" depart="1451.29" departLane="best" from="57017120#1" to="167317226#2"/>
    <trip id="motorcycle83" type="motorcycle_motorcycle" depart="1468.99" departLane="best" from="166219945" to="357045553#1"/>
    <trip id="motorcycle84" type="motorcycle_motorcycle" depart="1486.69" departLane="best" from="339112712#8" to="-169680965#2"/>
    <trip id="motorcycle85" type="motorcycle_motorcycle" depart="1504.38" departLane="best" from="-166219960#0" to="166219944#0"/>
    <trip id="motorcycle86" type="motorcycle_motorcycle" depart="1522.08" departLane="best" from="166219897#3" to="166219956#3"/>
    <trip id="motorcycle87" type="motorcycle_motorcycle" depart="1539.78" departLane="best" from="227750944#2" to="227744471#3"/>
    <trip id="motorcycle88" type="motorcycle_motorcycle" depart="1557.48" departLane="best" from="850015581" to="-166219967#0"/>
    <trip id="motorcycle89" type="motorcycle_motorcycle" depart="1575.18" departLane="best" from="117031001#0" to="724017862#0"/>
    <trip id="motorcycle90" type="motorcycle_motorcycle" depart="1592.88" departLane="best" from="357045569#0" to="-339112690#3"/>
    <trip id="motorcycle91" type="motorcycle_motorcycle" depart="1610.58" departLane="best" from="-169680965#1" to="-166219949#1"/>
    <trip id="motorcycle92" type="motorcycle_motorcycle" depart="1628.28" departLane="best" from="166219897#3" to="-57011498#1"/>
    <trip id="motorcycle93" type="motorcycle_motorcycle" depart="1645.97" departLane="best" from="339112690#1" to="724017859#0"/>
    <trip id="motorcycle94" type="motorcycle_motorcycle" depart="1663.67" departLane="best" departSpeed="max" from="166219910" to="166219954#0"/>
    <trip id="motorcycle95" type="motorcycle_motorcycle" depart="1681.37" departLane="best" from="166219968#3" to="-166219944#1"/>
    <trip id="motorcycle96" type="motorcycle_motorcycle" depart="1699.07" departLane="best" from="877391419" to="443996534#0"/>
    <trip id="motorcycle97" type="motorcycle_motorcycle" depart="1716.77" departLane="best" from="-724017861#1" to="-724017860#0"/>
    <trip id="motorcycle98" type="motorcycle_motorcycle" depart="1734.47" departLane="best" from="357045565#2" to="169680951#1"/>
    <trip id="motorcycle99" type="motorcycle_motorcycle" depart="1752.17" departLane="best" from="166219949#2" to="-227744471#1"/>
    <trip id="motorcycle100" type="motorcycle_motorcycle" depart="1769.86" departLane="best" from="117031001#0" to="-166219947"/>
    <trip id="motorcycle101" type="motorcycle_motorcycle" depart="1787.56" departLane="best" departSpeed="max" from="-986104609" to="986104609"/>
    <trip id="motorcycle102" type="motorcycle_motorcycle" depart="1805.26" departLane="best" from="-339112691#1" to="357045553#1"/>
    <trip id="motorcycle103" type="motorcycle_motorcycle" depart="1822.96" departLane="best" from="166219927#1" to="166219927#4"/>
    <trip id="motorcycle104" type="motorcycle_motorcycle" depart="1840.66" departLane="best" departSpeed="max" from="691299759" to="986107131"/>
    <trip id="motorcycle105" type="motorcycle_motorcycle" depart="1858.36" departLane="best" departSpeed="max" from="166219972#0" to="-316315762"/>
    <trip id="motorcycle106" type="motorcycle_motorcycle" depart="1876.06" departLane="best" from="-167317226#1" to="-57016690"/>
    <trip id="motorcycle107" type="motorcycle_motorcycle" depart="1893.75" departLane="best" from="724017860#1" to="227744647#0"/>
    <trip id="motorcycle108" type="motorcycle_motorcycle" depart="1911.45" departLane="best" from="166219968#0" to="339112712#4"/>
    <trip id="motorcycle109" type="motorcycle_motorcycle" depart="1929.15" departLane="best" from="-166219944#1" to="169557779#0"/>
    <trip id="motorcycle110" type="motorcycle_motorcycle" depart="1946.85" departLane="best" from="-166219956#3" to="57011498#1"/>
    <trip id="motorcycle111" type="motorcycle_motorcycle" depart="1964.55" departLane="best" from="167317226#2" to="853112594"/>
    <trip id="motorcycle112" type="motorcycle_motorcycle" depart="1982.25" departLane="best" from="-166219954#1" to="-169680951#7"/>
    <trip id="motorcycle113" type="motorcycle_motorcycle" depart="1999.95" departLane="best" from="167317172#0" to="227744647#0"/>
    <trip id="motorcycle114" type="motorcycle_motorcycle" depart="2017.65" departLane="best" from="227750944#5" to="-166219972#2"/>
    <trip id="motorcycle115" type="motorcycle_motorcycle" depart="2035.34" departLane="best" from="57011499#1" to="-339112690#1"/>
    <trip id="motorcycle116" type="motorcycle_motorcycle" depart="2053.04" departLane="best" from="167317172#0" to="169680951#4"/>
    <trip id="motorcycle117" type="motorcycle_motorcycle" depart="2070.74" departLane="best" from="166219897#2" to="227744647#0"/>
    <trip id="motorcycle118" type="motorcycle_motorcycle" depart="2088.44" departLane="best" from="166219963#2" to="-724017861#1"/>
    <trip id="motorcycle119" type="motorcycle_motorcycle" depart="2106.14" departLane="best" departSpeed="max" from="-227827182" to="443996534#1"/>
    <trip id="motorcycle120" type="motorcycle_motorcycle" depart="2123.84" departLane="best" from="-169680965#2" to="-57017120#0"/>
    <trip id="motorcycle121" type="motorcycle_motorcycle" depart="2141.54" departLane="best" from="-57017120#3" to="1124739286#0"/>
    <trip id="motorcycle122" type="motorcycle_motorcycle" depart="2159.23" departLane="best" from="166219949#2" to="166219954#1"/>
    <trip id="motorcycle123" type="motorcycle_motorcycle" depart="2176.93" departLane="best" from="877391419" to="986107131"/>
    <trip id="motorcycle124" type="motorcycle_motorcycle" depart="2194.63" departLane="best" from="-166219949#3" to="227744471#1"/>
    <trip id="motorcycle125" type="motorcycle_motorcycle" depart="2212.33" departLane="best" from="339112691#0" to="724017861#0"/>
    <trip id="motorcycle126" type="motorcycle_motorcycle" depart="2230.03" departLane="best" from="57011498#0" to="57011500#4"/>
    <trip id="motorcycle127" type="motorcycle_motorcycle" depart="2247.73" departLane="best" departSpeed="max" from="-986104608" to="-167317226#2"/>
    <trip id="motorcycle128" type="motorcycle_motorcycle" depart="2265.43" departLane="best" from="357045558#1" to="227827182"/>
    <trip id="motorcycle129" type="motorcycle_motorcycle" depart="2283.12" departLane="best" from="167317226#2" to="986104609"/>
    <trip id="motorcycle130" type="motorcycle_motorcycle" depart="2300.82" departLane="best" from="169680951#4" to="-135620024#0"/>
    <trip id="motorcycle131" type="motorcycle_motorcycle" depart="2318.52" departLane="best" from="339112719#1" to="-57017120#0"/>
    <trip id="motorcycle132" type="motorcycle_motorcycle" depart="2336.22" departLane="best" from="169680951#7" to="813028986"/>
    <trip id="motorcycle133" type="motorcycle_motorcycle" depart="2353.92" departLane="best" from="-166220853" to="-166219972#1"/>
    <trip id="motorcycle134" type="motorcycle_motorcycle" depart="2371.62" departLane="best" from="-166219960#3" to="167317172#0"/>
    <trip id="motorcycle135" type="motorcycle_motorcycle" depart="2389.32" departLane="best" from="-357045553#2" to="169562129#3"/>
    <trip id="motorcycle136" type="motorcycle_motorcycle" depart="2407.02" departLane="best" from="357045565#0" to="-227743997#0"/>
    <trip id="motorcycle137" type="motorcycle_motorcycle" depart="2424.71" departLane="best" from="169562129#1" to="357045553#0"/>
    <trip id="motorcycle138" type="motorcycle_motorcycle" depart="2442.41" departLane="best" from="-166219954#0" to="57017120#3"/>
    <trip id="motorcycle139" type="motorcycle_motorcycle" depart="2460.11" departLane="best" from="357045565#0" to="166219960#2"/>
    <trip id="motorcycle140" type="motorcycle_motorcycle" depart="2477.81" departLane="best" from="166219897#3" to="-57011498#1"/>
    <trip id="motorcycle141" type="motorcycle_motorcycle" depart="2495.51" departLane="best" from="-117031001#1" to="169680966#2"/>
    <trip id="motorcycle142" type="motorcycle_motorcycle" depart="2513.21" departLane="best" from="169562129#2" to="-339112691#1"/>
    <trip id="motorcycle143" type="motorcycle_motorcycle" depart="2530.91" departLane="best" departSpeed="max" from="227817794" to="167317050"/>
    <trip id="motorcycle144" type="motorcycle_motorcycle" depart="2548.60" departLane="best" from="166219907#0" to="135620024#1"/>
    <trip id="motorcycle145" type="motorcycle_motorcycle" depart="2566.30" departLane="best" from="-166219954#0" to="57016687#1"/>
    <trip id="motorcycle146" type="motorcycle_motorcycle" depart="2584.00" departLane="best" from="57011500#2" to="-166220883#0"/>
    <trip id="motorcycle147" type="motorcycle_motorcycle" depart="2601.70" departLane="best" from="357045558#2" to="167317250"/>
    <trip id="motorcycle148" type="motorcycle_motorcycle" depart="2619.40" departLane="best" from="-167317050" to="-166220841#1"/>
    <trip id="motorcycle149" type="motorcycle_motorcycle" depart="2637.10" departLane="best" from="57017120#0" to="57017120#1"/>
    <trip id="motorcycle150" type="motorcycle_motorcycle" depart="2654.80" departLane="best" from="339112712#4" to="166219954#0"/>
    <trip id="motorcycle151" type="motorcycle_motorcycle" depart="2672.49" departLane="best" from="57011499#4" to="227744471#0"/>
    <trip id="motorcycle152" type="motorcycle_motorcycle" depart="2690.19" departLane="best" from="339112690#1" to="166219967#2"/>
    <trip id="motorcycle153" type="motorcycle_motorcycle" depart="2707.89" departLane="best" from="339112691#0" to="-57016687#1"/>
    <trip id="motorcycle154" type="motorcycle_motorcycle" depart="2725.59" departLane="best" from="135620024#0" to="-169680951#4"/>
    <trip id="motorcycle155" type="motorcycle_motorcycle" depart="2743.29" departLane="best" from="-167317226#1" to="724017860#1"/>
    <trip id="motorcycle156" type="motorcycle_motorcycle" depart="2760.99" departLane="best" from="357045569#1" to="986104608"/>
    <trip id="motorcycle157" type="motorcycle_motorcycle" depart="2778.69" departLane="best" from="339112712#9" to="57011500#4"/>
    <trip id="motorcycle158" type="motorcycle_motorcycle" depart="2796.39" departLane="best" from="-166219909" to="-339112691#1"/>
    <trip id="motorcycle159" type="motorcycle_motorcycle" depart="2814.08" departLane="best" from="-646131033" to="-724017860#1"/>
    <trip id="motorcycle160" type="motorcycle_motorcycle" depart="2831.78" departLane="best" from="339112712#6" to="57011499#3"/>
    <trip id="motorcycle161" type="motorcycle_motorcycle" depart="2849.48" departLane="best" from="339112712#9" to="357045553#0"/>
    <trip id="motorcycle162" type="motorcycle_motorcycle" depart="2867.18" departLane="best" from="443996534#2" to="57011499#1"/>
    <trip id="motorcycle163" type="motorcycle_motorcycle" depart="2884.88" departLane="best" from="227750944#1" to="357045565#0"/>
    <trip id="motorcycle164" type="motorcycle_motorcycle" depart="2902.58" departLane="best" from="166219927#3" to="-57017120#2"/>
    <trip id="motorcycle165" type="motorcycle_motorcycle" depart="2920.28" departLane="best" from="339112712#4" to="-227750944#3"/>
    <trip id="motorcycle166" type="motorcycle_motorcycle" depart="2937.97" departLane="best" from="-166219909" to="-227494432"/>
    <trip id="motorcycle167" type="motorcycle_motorcycle" depart="2955.67" departLane="best" departSpeed="max" from="-57017120#6" to="57011499#3"/>
    <trip id="motorcycle168" type="motorcycle_motorcycle" depart="2973.37" departLane="best" from="724017860#1" to="-57011498#1"/>
    <trip id="motorcycle169" type="motorcycle_motorcycle" depart="2991.07" departLane="best" from="169562129#4" to="166219913#0"/>
    <trip id="motorcycle170" type="motorcycle_motorcycle" depart="3008.77" departLane="best" from="57011499#1" to="-166220853"/>
    <trip id="motorcycle171" type="motorcycle_motorcycle" depart="3026.47" departLane="best" from="57017120#2" to="-166219972#1"/>
    <trip id="motorcycle172" type="motorcycle_motorcycle" depart="3044.17" departLane="best" from="724017861#0" to="-169680951#5"/>
    <trip id="motorcycle173" type="motorcycle_motorcycle" depart="3061.87" departLane="best" from="-724017860#0" to="357045553#0"/>
    <trip id="motorcycle174" type="motorcycle_motorcycle" depart="3079.56" departLane="best" from="-166219960#3" to="166219944#1"/>
    <trip id="motorcycle175" type="motorcycle_motorcycle" depart="3097.26" departLane="best" from="227750944#2" to="57017120#5"/>
    <trip id="motorcycle176" type="motorcycle_motorcycle" depart="3114.96" departLane="best" from="-167317226#0" to="166219967#3"/>
    <trip id="motorcycle177" type="motorcycle_motorcycle" depart="3132.66" departLane="best" departSpeed="max" from="-986107130" to="167317226#4"/>
    <trip id="motorcycle178" type="motorcycle_motorcycle" depart="3150.36" departLane="best" from="339112690#4" to="267607730#1"/>
    <trip id="motorcycle179" type="motorcycle_motorcycle" depart="3168.06" departLane="best" from="-117031001#0" to="724017860#0"/>
    <trip id="motorcycle180" type="motorcycle_motorcycle" depart="3185.76" departLane="best" from="166219967#3" to="-316315762"/>
    <trip id="motorcycle181" type="motorcycle_motorcycle" depart="3203.45" departLane="best" departSpeed="max" from="227817794" to="227744471#3"/>
    <trip id="motorcycle182" type="motorcycle_motorcycle" depart="3221.15" departLane="best" from="868986731" to="166219954#0"/>
    <trip id="motorcycle183" type="motorcycle_motorcycle" depart="3238.85" departLane="best" from="-169680951#7" to="-724017860#0"/>
    <trip id="motorcycle184" type="motorcycle_motorcycle" depart="3256.55" departLane="best" from="-57017120#2" to="57011498#0"/>
    <trip id="motorcycle185" type="motorcycle_motorcycle" depart="3274.25" departLane="best" from="-57017120#0" to="166219924"/>
    <trip id="motorcycle186" type="motorcycle_motorcycle" depart="3291.95" departLane="best" from="-117031001#0" to="-57016690"/>
    <trip id="motorcycle187" type="motorcycle_motorcycle" depart="3309.65" departLane="best" from="166219972#2" to="166219927#3"/>
    <trip id="motorcycle188" type="motorcycle_motorcycle" depart="3327.34" departLane="best" from="57017120#2" to="227744647#1"/>
    <trip id="motorcycle189" type="motorcycle_motorcycle" depart="3345.04" departLane="best" from="57011500#0" to="-169680951#3"/>
    <trip id="motorcycle190" type="motorcycle_motorcycle" depart="3362.74" departLane="best" from="-57016687#3" to="166220883#1"/>
    <trip id="motorcycle191" type="motorcycle_motorcycle" depart="3380.44" departLane="best" from="-117031001#0" to="-57016687#1"/>
    <trip id="motorcycle192" type="motorcycle_motorcycle" depart="3398.14" departLane="best" from="166219907#1" to="167317250"/>
    <trip id="motorcycle193" type="motorcycle_motorcycle" depart="3415.84" departLane="best" from="-169680951#4" to="-166219956#1"/>
    <trip id="motorcycle194" type="motorcycle_motorcycle" depart="3433.54" departLane="best" departSpeed="max" from="166219910" to="-227744471#1"/>
    <trip id="motorcycle195" type="motorcycle_motorcycle" depart="3451.24" departLane="best" from="166219945" to="57017120#2"/>
    <trip id="motorcycle196" type="motorcycle_motorcycle" depart="3468.93" departLane="best" from="339112712#4" to="169680951#2"/>
    <trip id="motorcycle197" type="motorcycle_motorcycle" depart="3486.63" departLane="best" from="-166219956#1" to="166219968#0"/>
    <trip id="motorcycle198" type="motorcycle_motorcycle" depart="3504.33" departLane="best" from="169562129#1" to="-724017860#1"/>
    <trip id="motorcycle199" type="motorcycle_motorcycle" depart="3522.03" departLane="best" from="339112719#1" to="1124739286#1"/>
    <trip id="motorcycle200" type="motorcycle_motorcycle" depart="3539.73" departLane="best" departSpeed="max" from="-169680965#3" to="-166219909"/>
    <trip id="motorcycle201" type="motorcycle_motorcycle" depart="3557.43" departLane="best" from="316315762" to="166219956#4"/>
    <trip id="motorcycle202" type="motorcycle_motorcycle" depart="3575.13" departLane="best" from="357045565#2" to="166219954#1"/>
    <trip id="motorcycle203" type="motorcycle_motorcycle" depart="3592.82" departLane="best" from="166219897#0" to="169680951#7"/>
</routes>
