<?xml version="1.0" encoding="UTF-8"?>

<!-- generated on 2024-03-09 13:04:43.528102 by osmWebWizard.py v1_17_0+0000-737931d58da
<configuration>
    <net-file value="C:\Users\IVY\Sumo\2024-03-09-13-04-34\osm.net.xml.gz"/>
    <additional-files value="C:\Users\IVY\Sumo\2024-03-09-13-04-34\osm_stops.add.xml,C:\Users\IVY\Sumo\2024-03-09-13-04-34\osm_pt.rou.xml"/>
    <output-trip-file value="C:\Users\IVY\Sumo\2024-03-09-13-04-34\osm.pedestrian.trips.xml"/>
    <route-file value="C:\Users\IVY\Sumo\2024-03-09-13-04-34\osm.pedestrian.rou.xml"/>
    <persontrips value="True"/>
    <persontrip.walk-opposite-factor value="0.8"/>
    <prefix value="ped"/>
    <trip-attributes value="modes=&quot;public&quot;"/>
    <fringe-factor value="1"/>
    <vehicle-class value="pedestrian"/>
    <insertion-density value="10.0"/>
</configuration>
-->

<routes xmlns:xsi="http://www.w3.org/2001/XMLSchema-instance" xsi:noNamespaceSchemaLocation="http://sumo.dlr.de/xsd/routes_file.xsd">
    <vType id="ped_pedestrian" vClass="pedestrian"/>
    <person id="ped0" depart="0.00" type="ped_pedestrian">
        <personTrip from="267607730#1" to="-117031001#0" modes="public"/>
    </person>
    <person id="ped1" depart="17.03" type="ped_pedestrian">
        <personTrip from="-443996534#2" to="-357045566#1" modes="public"/>
    </person>
    <person id="ped2" depart="34.05" type="ped_pedestrian">
        <personTrip from="357045558#3" to="339112712#4" modes="public"/>
    </person>
    <person id="ped3" depart="51.08" type="ped_pedestrian">
        <personTrip from="691127617" to="-166219968#2" modes="public"/>
    </person>
    <person id="ped4" depart="68.11" type="ped_pedestrian">
        <personTrip from="1000675590#0" to="-117031001#1" modes="public"/>
    </person>
    <person id="ped5" depart="85.14" type="ped_pedestrian">
        <personTrip from="-357045566#1" to="166219968#1" modes="public"/>
    </person>
    <person id="ped6" depart="102.16" type="ped_pedestrian">
        <personTrip from="-117031001#0" to="-357045558#3" modes="public"/>
    </person>
    <person id="ped7" depart="119.19" type="ped_pedestrian">
        <personTrip from="267607730#2" to="169557779#0" modes="public"/>
    </person>
    <person id="ped8" depart="136.22" type="ped_pedestrian">
        <personTrip from="-357045566#1" to="169682781#2" modes="public"/>
    </person>
    <person id="ped9" depart="153.24" type="ped_pedestrian">
        <personTrip from="443996534#2" to="-1000675589" modes="public"/>
    </person>
    <person id="ped10" depart="170.27" type="ped_pedestrian">
        <personTrip from="443996534#2" to="339112712#7" modes="public"/>
    </person>
    <person id="ped11" depart="187.30" type="ped_pedestrian">
        <personTrip from="-57011500#3" to="-227494069#1" modes="public"/>
    </person>
    <person id="ped12" depart="204.32" type="ped_pedestrian">
        <personTrip from="985754351" to="-57011500#3" modes="public"/>
    </person>
    <person id="ped13" depart="221.35" type="ped_pedestrian">
        <personTrip from="-166219968#3" to="-167317172#0" modes="public"/>
    </person>
    <person id="ped14" depart="238.38" type="ped_pedestrian">
        <personTrip from="57011499#2" to="227494069#1" modes="public"/>
    </person>
    <person id="ped15" depart="255.41" type="ped_pedestrian">
        <personTrip from="443996534#2" to="357045558#2" modes="public"/>
    </person>
    <person id="ped16" depart="272.43" type="ped_pedestrian">
        <personTrip from="167317172#1" to="986107127" modes="public"/>
    </person>
    <person id="ped17" depart="289.46" type="ped_pedestrian">
        <personTrip from="-986107126" to="169557779#1" modes="public"/>
    </person>
    <person id="ped18" depart="306.49" type="ped_pedestrian">
        <personTrip from="57011499#0" to="227736807" modes="public"/>
    </person>
    <person id="ped19" depart="323.51" type="ped_pedestrian">
        <personTrip from="57011499#4" to="169682781#0" modes="public"/>
    </person>
    <person id="ped20" depart="340.54" type="ped_pedestrian">
        <personTrip from="339112712#8" to="-166219963#1" modes="public"/>
    </person>
    <person id="ped21" depart="357.57" type="ped_pedestrian">
        <personTrip from="-357045566#2" to="-57011499#0" modes="public"/>
    </person>
    <person id="ped22" depart="374.60" type="ped_pedestrian">
        <personTrip from="-166219968#2" to="-357045569#0" modes="public"/>
    </person>
    <person id="ped23" depart="391.62" type="ped_pedestrian">
        <personTrip from="-167317172#0" to="-443996534#3" modes="public"/>
    </person>
    <person id="ped24" depart="408.65" type="ped_pedestrian">
        <personTrip from="267607730#0" to="-985754350" modes="public"/>
    </person>
    <person id="ped25" depart="425.68" type="ped_pedestrian">
        <personTrip from="-985754351" to="-357045558#4" modes="public"/>
    </person>
    <person id="ped26" depart="442.70" type="ped_pedestrian">
        <personTrip from="-443996534#1" to="868980068" modes="public"/>
    </person>
    <person id="ped27" depart="459.73" type="ped_pedestrian">
        <personTrip from="267607730#2" to="227494074" modes="public"/>
    </person>
    <person id="ped28" depart="476.76" type="ped_pedestrian">
        <personTrip from="-227736807" to="357045558#2" modes="public"/>
    </person>
    <person id="ped29" depart="493.78" type="ped_pedestrian">
        <personTrip from="-227494074" to="-986107126" modes="public"/>
    </person>
    <person id="ped30" depart="510.81" type="ped_pedestrian">
        <personTrip from="986107129" to="267607730#1" modes="public"/>
    </person>
    <person id="ped31" depart="527.84" type="ped_pedestrian">
        <personTrip from="169557779#1" to="339112712#5" modes="public"/>
    </person>
    <person id="ped32" depart="544.87" type="ped_pedestrian">
        <personTrip from="57011499#2" to="357045569#1" modes="public"/>
    </person>
    <person id="ped33" depart="561.89" type="ped_pedestrian">
        <personTrip from="-357045566#2" to="-117031001#1" modes="public"/>
    </person>
    <person id="ped34" depart="578.92" type="ped_pedestrian">
        <personTrip from="-57011499#4" to="-443996534#1" modes="public"/>
    </person>
    <person id="ped35" depart="595.95" type="ped_pedestrian">
        <personTrip from="-357045566#0" to="985733719" modes="public"/>
    </person>
    <person id="ped36" depart="612.97" type="ped_pedestrian">
        <personTrip from="57011500#2" to="-57011499#4" modes="public"/>
    </person>
    <person id="ped37" depart="630.00" type="ped_pedestrian">
        <personTrip from="339112712#0" to="-986107128" modes="public"/>
    </person>
    <person id="ped38" depart="647.03" type="ped_pedestrian">
        <personTrip from="691127621" to="117031001#1" modes="public"/>
    </person>
    <person id="ped39" depart="664.05" type="ped_pedestrian">
        <personTrip from="-443996534#1" to="-361858493" modes="public"/>
    </person>
    <person id="ped40" depart="681.08" type="ped_pedestrian">
        <personTrip from="169557779#2" to="-443996534#1" modes="public"/>
    </person>
    <person id="ped41" depart="698.11" type="ped_pedestrian">
        <personTrip from="169682781#1" to="691127617" modes="public"/>
    </person>
    <person id="ped42" depart="715.14" type="ped_pedestrian">
        <personTrip from="-986107129" to="-357045566#1" modes="public"/>
    </person>
    <person id="ped43" depart="732.16" type="ped_pedestrian">
        <personTrip from="998268798" to="166219968#2" modes="public"/>
    </person>
    <person id="ped44" depart="749.19" type="ped_pedestrian">
        <personTrip from="-166219968#3" to="-166219963#1" modes="public"/>
    </person>
    <person id="ped45" depart="766.22" type="ped_pedestrian">
        <personTrip from="-167317172#2" to="227745825" modes="public"/>
    </person>
    <person id="ped46" depart="783.24" type="ped_pedestrian">
        <personTrip from="443996534#0" to="1000675590#0" modes="public"/>
    </person>
    <person id="ped47" depart="800.27" type="ped_pedestrian">
        <personTrip from="-166219963#3" to="-986107126" modes="public"/>
    </person>
    <person id="ped48" depart="817.30" type="ped_pedestrian">
        <personTrip from="998268798" to="167317172#1" modes="public"/>
    </person>
    <person id="ped49" depart="834.33" type="ped_pedestrian">
        <personTrip from="986107127" to="57011499#4" modes="public"/>
    </person>
    <person id="ped50" depart="851.35" type="ped_pedestrian">
        <personTrip from="-1000675590#0" to="357045558#1" modes="public"/>
    </person>
    <person id="ped51" depart="868.38" type="ped_pedestrian">
        <personTrip from="339112712#5" to="167317172#2" modes="public"/>
    </person>
    <person id="ped52" depart="885.41" type="ped_pedestrian">
        <personTrip from="-443996534#1" to="267607730#1" modes="public"/>
    </person>
    <person id="ped53" depart="902.43" type="ped_pedestrian">
        <personTrip from="-167317172#2" to="1000675590#1" modes="public"/>
    </person>
    <person id="ped54" depart="919.46" type="ped_pedestrian">
        <personTrip from="117031001#0" to="985754350" modes="public"/>
    </person>
    <person id="ped55" depart="936.49" type="ped_pedestrian">
        <personTrip from="57011500#2" to="-443996534#1" modes="public"/>
    </person>
    <person id="ped56" depart="953.51" type="ped_pedestrian">
        <personTrip from="166219968#1" to="-227745825" modes="public"/>
    </person>
    <person id="ped57" depart="970.54" type="ped_pedestrian">
        <personTrip from="691127620" to="57011500#2" modes="public"/>
    </person>
    <person id="ped58" depart="987.57" type="ped_pedestrian">
        <personTrip from="-57011499#2" to="267607730#1" modes="public"/>
    </person>
    <person id="ped59" depart="1004.60" type="ped_pedestrian">
        <personTrip from="227494074" to="-227494069#1" modes="public"/>
    </person>
    <person id="ped60" depart="1021.62" type="ped_pedestrian">
        <personTrip from="357045566#2" to="167317172#2" modes="public"/>
    </person>
    <person id="ped61" depart="1038.65" type="ped_pedestrian">
        <personTrip from="357045569#1" to="167317172#1" modes="public"/>
    </person>
    <person id="ped62" depart="1055.68" type="ped_pedestrian">
        <personTrip from="-1000675589" to="-57011500#1" modes="public"/>
    </person>
    <person id="ped63" depart="1072.70" type="ped_pedestrian">
        <personTrip from="-1000675590#1" to="859732039" modes="public"/>
    </person>
    <person id="ped64" depart="1089.73" type="ped_pedestrian">
        <personTrip from="57011500#3" to="57011499#0" modes="public"/>
    </person>
    <person id="ped65" depart="1106.76" type="ped_pedestrian">
        <personTrip from="-57011499#3" to="-166219963#2" modes="public"/>
    </person>
    <person id="ped66" depart="1123.79" type="ped_pedestrian">
        <personTrip from="57011500#3" to="985733719" modes="public"/>
    </person>
    <person id="ped67" depart="1140.81" type="ped_pedestrian">
        <personTrip from="-166219968#2" to="166219963#3" modes="public"/>
    </person>
    <person id="ped68" depart="1157.84" type="ped_pedestrian">
        <personTrip from="-166219968#0" to="357045566#1" modes="public"/>
    </person>
    <person id="ped69" depart="1174.87" type="ped_pedestrian">
        <personTrip from="357045566#2" to="-169682781#0" modes="public"/>
    </person>
    <person id="ped70" depart="1191.89" type="ped_pedestrian">
        <personTrip from="166219963#1" to="169557779#0" modes="public"/>
    </person>
    <person id="ped71" depart="1208.92" type="ped_pedestrian">
        <personTrip from="-443996534#1" to="57011500#2" modes="public"/>
    </person>
    <person id="ped72" depart="1225.95" type="ped_pedestrian">
        <personTrip from="1000675590#0" to="-357045566#0" modes="public"/>
    </person>
    <person id="ped73" depart="1242.97" type="ped_pedestrian">
        <personTrip from="167317172#2" to="357045558#2" modes="public"/>
    </person>
    <person id="ped74" depart="1260.00" type="ped_pedestrian">
        <personTrip from="-357045558#3" to="-57011499#4" modes="public"/>
    </person>
    <person id="ped75" depart="1277.03" type="ped_pedestrian">
        <personTrip from="998268798" to="267607730#2" modes="public"/>
    </person>
    <person id="ped76" depart="1294.06" type="ped_pedestrian">
        <personTrip from="1124739286#0" to="166219968#3" modes="public"/>
    </person>
    <person id="ped77" depart="1311.08" type="ped_pedestrian">
        <personTrip from="-169561546" to="-357045566#2" modes="public"/>
    </person>
    <person id="ped78" depart="1328.11" type="ped_pedestrian">
        <personTrip from="-57011500#3" to="169682781#2" modes="public"/>
    </person>
    <person id="ped79" depart="1345.14" type="ped_pedestrian">
        <personTrip from="-357045566#2" to="-357045566#1" modes="public"/>
    </person>
    <person id="ped80" depart="1362.16" type="ped_pedestrian">
        <personTrip from="-166219968#0" to="267607730#0" modes="public"/>
    </person>
    <person id="ped81" depart="1379.19" type="ped_pedestrian">
        <personTrip from="-357045566#2" to="691127618" modes="public"/>
    </person>
    <person id="ped82" depart="1396.22" type="ped_pedestrian">
        <personTrip from="57011499#4" to="-166219968#0" modes="public"/>
    </person>
    <person id="ped83" depart="1413.25" type="ped_pedestrian">
        <personTrip from="-357045569#0" to="339112712#3" modes="public"/>
    </person>
    <person id="ped84" depart="1430.27" type="ped_pedestrian">
        <personTrip from="-357045566#0" to="-169682781#1" modes="public"/>
    </person>
    <person id="ped85" depart="1447.30" type="ped_pedestrian">
        <personTrip from="868980068" to="169561546" modes="public"/>
    </person>
    <person id="ped86" depart="1464.33" type="ped_pedestrian">
        <personTrip from="166219963#1" to="361858493" modes="public"/>
    </person>
    <person id="ped87" depart="1481.35" type="ped_pedestrian">
        <personTrip from="443996534#2" to="-357045558#2" modes="public"/>
    </person>
    <person id="ped88" depart="1498.38" type="ped_pedestrian">
        <personTrip from="-167317172#0" to="1000675590#1" modes="public"/>
    </person>
    <person id="ped89" depart="1515.41" type="ped_pedestrian">
        <personTrip from="1000675590#0" to="166219963#0" modes="public"/>
    </person>
    <person id="ped90" depart="1532.43" type="ped_pedestrian">
        <personTrip from="357045558#2" to="339112712#3" modes="public"/>
    </person>
    <person id="ped91" depart="1549.46" type="ped_pedestrian">
        <personTrip from="986107128" to="-167317172#0" modes="public"/>
    </person>
    <person id="ped92" depart="1566.49" type="ped_pedestrian">
        <personTrip from="-986107129" to="-57011500#3" modes="public"/>
    </person>
    <person id="ped93" depart="1583.52" type="ped_pedestrian">
        <personTrip from="57011499#4" to="-361858493" modes="public"/>
    </person>
    <person id="ped94" depart="1600.54" type="ped_pedestrian">
        <personTrip from="-357045558#2" to="1124739286#1" modes="public"/>
    </person>
    <person id="ped95" depart="1617.57" type="ped_pedestrian">
        <personTrip from="1000675590#0" to="-443996534#3" modes="public"/>
    </person>
    <person id="ped96" depart="1634.60" type="ped_pedestrian">
        <personTrip from="-361858493" to="691127622" modes="public"/>
    </person>
    <person id="ped97" depart="1651.62" type="ped_pedestrian">
        <personTrip from="1124739286#1" to="57011499#4" modes="public"/>
    </person>
    <person id="ped98" depart="1668.65" type="ped_pedestrian">
        <personTrip from="169557779#0" to="-166219963#1" modes="public"/>
    </person>
    <person id="ped99" depart="1685.68" type="ped_pedestrian">
        <personTrip from="998268798" to="57011499#1" modes="public"/>
    </person>
    <person id="ped100" depart="1702.70" type="ped_pedestrian">
        <personTrip from="986107126" to="691127622" modes="public"/>
    </person>
    <person id="ped101" depart="1719.73" type="ped_pedestrian">
        <personTrip from="57011499#3" to="-227494074" modes="public"/>
    </person>
    <person id="ped102" depart="1736.76" type="ped_pedestrian">
        <personTrip from="166219963#3" to="-357045566#0" modes="public"/>
    </person>
    <person id="ped103" depart="1753.79" type="ped_pedestrian">
        <personTrip from="-986107129" to="-166219963#3" modes="public"/>
    </person>
    <person id="ped104" depart="1770.81" type="ped_pedestrian">
        <personTrip from="-986107126" to="986107128" modes="public"/>
    </person>
    <person id="ped105" depart="1787.84" type="ped_pedestrian">
        <personTrip from="-443996534#1" to="361858493" modes="public"/>
    </person>
    <person id="ped106" depart="1804.87" type="ped_pedestrian">
        <personTrip from="117031001#0" to="1000675590#0" modes="public"/>
    </person>
    <person id="ped107" depart="1821.89" type="ped_pedestrian">
        <personTrip from="985754351" to="998268798" modes="public"/>
    </person>
    <person id="ped108" depart="1838.92" type="ped_pedestrian">
        <personTrip from="169557779#1" to="357045558#1" modes="public"/>
    </person>
    <person id="ped109" depart="1855.95" type="ped_pedestrian">
        <personTrip from="-227494069#1" to="-57011499#1" modes="public"/>
    </person>
    <person id="ped110" depart="1872.98" type="ped_pedestrian">
        <personTrip from="986107126" to="169682781#0" modes="public"/>
    </person>
    <person id="ped111" depart="1890.00" type="ped_pedestrian">
        <personTrip from="167317172#2" to="357045566#0" modes="public"/>
    </person>
    <person id="ped112" depart="1907.03" type="ped_pedestrian">
        <personTrip from="-166219963#2" to="169682781#1" modes="public"/>
    </person>
    <person id="ped113" depart="1924.06" type="ped_pedestrian">
        <personTrip from="166219968#1" to="57011499#3" modes="public"/>
    </person>
    <person id="ped114" depart="1941.08" type="ped_pedestrian">
        <personTrip from="-227494069#1" to="985754351" modes="public"/>
    </person>
    <person id="ped115" depart="1958.11" type="ped_pedestrian">
        <personTrip from="-166219968#2" to="-357045558#1" modes="public"/>
    </person>
    <person id="ped116" depart="1975.14" type="ped_pedestrian">
        <personTrip from="227494069#0" to="339112712#4" modes="public"/>
    </person>
    <person id="ped117" depart="1992.16" type="ped_pedestrian">
        <personTrip from="-357045569#0" to="-169561546" modes="public"/>
    </person>
    <person id="ped118" depart="2009.19" type="ped_pedestrian">
        <personTrip from="57011500#4" to="-357045569#1" modes="public"/>
    </person>
    <person id="ped119" depart="2026.22" type="ped_pedestrian">
        <personTrip from="227494069#0" to="227736807" modes="public"/>
    </person>
    <person id="ped120" depart="2043.25" type="ped_pedestrian">
        <personTrip from="1000675589" to="169682781#1" modes="public"/>
    </person>
    <person id="ped121" depart="2060.27" type="ped_pedestrian">
        <personTrip from="167317172#0" to="859732039" modes="public"/>
    </person>
    <person id="ped122" depart="2077.30" type="ped_pedestrian">
        <personTrip from="-357045558#4" to="339112712#9" modes="public"/>
    </person>
    <person id="ped123" depart="2094.33" type="ped_pedestrian">
        <personTrip from="-357045569#0" to="-986107128" modes="public"/>
    </person>
    <person id="ped124" depart="2111.35" type="ped_pedestrian">
        <personTrip from="339112712#3" to="-57011499#2" modes="public"/>
    </person>
    <person id="ped125" depart="2128.38" type="ped_pedestrian">
        <personTrip from="-57011499#4" to="357045566#0" modes="public"/>
    </person>
    <person id="ped126" depart="2145.41" type="ped_pedestrian">
        <personTrip from="-166219968#1" to="117031001#1" modes="public"/>
    </person>
    <person id="ped127" depart="2162.44" type="ped_pedestrian">
        <personTrip from="998268798" to="998268798" modes="public"/>
    </person>
    <person id="ped128" depart="2179.46" type="ped_pedestrian">
        <personTrip from="-166219968#1" to="-357045566#0" modes="public"/>
    </person>
    <person id="ped129" depart="2196.49" type="ped_pedestrian">
        <personTrip from="-443996534#1" to="859732039" modes="public"/>
    </person>
    <person id="ped130" depart="2213.52" type="ped_pedestrian">
        <personTrip from="57011500#3" to="57011500#3" modes="public"/>
    </person>
    <person id="ped131" depart="2230.54" type="ped_pedestrian">
        <personTrip from="-985754350" to="-227494069#1" modes="public"/>
    </person>
    <person id="ped132" depart="2247.57" type="ped_pedestrian">
        <personTrip from="57011499#1" to="339112712#8" modes="public"/>
    </person>
    <person id="ped133" depart="2264.60" type="ped_pedestrian">
        <personTrip from="227494074" to="986107129" modes="public"/>
    </person>
    <person id="ped134" depart="2281.62" type="ped_pedestrian">
        <personTrip from="339112712#0" to="-1000675590#0" modes="public"/>
    </person>
    <person id="ped135" depart="2298.65" type="ped_pedestrian">
        <personTrip from="443996534#3" to="-57011499#2" modes="public"/>
    </person>
    <person id="ped136" depart="2315.68" type="ped_pedestrian">
        <personTrip from="339112712#1" to="868980068" modes="public"/>
    </person>
    <person id="ped137" depart="2332.71" type="ped_pedestrian">
        <personTrip from="-169682781#1" to="-167317172#2" modes="public"/>
    </person>
    <person id="ped138" depart="2349.73" type="ped_pedestrian">
        <personTrip from="-167317172#1" to="169557779#1" modes="public"/>
    </person>
    <person id="ped139" depart="2366.76" type="ped_pedestrian">
        <personTrip from="-443996534#2" to="227494069#1" modes="public"/>
    </person>
    <person id="ped140" depart="2383.79" type="ped_pedestrian">
        <personTrip from="357045558#1" to="-357045558#4" modes="public"/>
    </person>
    <person id="ped141" depart="2400.81" type="ped_pedestrian">
        <personTrip from="267607730#0" to="-443996534#1" modes="public"/>
    </person>
    <person id="ped142" depart="2417.84" type="ped_pedestrian">
        <personTrip from="166219963#3" to="691127618" modes="public"/>
    </person>
    <person id="ped143" depart="2434.87" type="ped_pedestrian">
        <personTrip from="57011499#2" to="-166219968#3" modes="public"/>
    </person>
    <person id="ped144" depart="2451.90" type="ped_pedestrian">
        <personTrip from="1000675590#0" to="-443996534#3" modes="public"/>
    </person>
    <person id="ped145" depart="2468.92" type="ped_pedestrian">
        <personTrip from="-1000675589" to="357045569#0" modes="public"/>
    </person>
    <person id="ped146" depart="2485.95" type="ped_pedestrian">
        <personTrip from="267607730#0" to="-443996534#1" modes="public"/>
    </person>
    <person id="ped147" depart="2502.98" type="ped_pedestrian">
        <personTrip from="357045558#4" to="169557779#1" modes="public"/>
    </person>
    <person id="ped148" depart="2520.00" type="ped_pedestrian">
        <personTrip from="1000675590#1" to="-1000675590#0" modes="public"/>
    </person>
    <person id="ped149" depart="2537.03" type="ped_pedestrian">
        <personTrip from="-166219968#1" to="57011500#3" modes="public"/>
    </person>
    <person id="ped150" depart="2554.06" type="ped_pedestrian">
        <personTrip from="691127618" to="169557779#0" modes="public"/>
    </person>
    <person id="ped151" depart="2571.08" type="ped_pedestrian">
        <personTrip from="57011499#1" to="169682781#1" modes="public"/>
    </person>
    <person id="ped152" depart="2588.11" type="ped_pedestrian">
        <personTrip from="-227494069#0" to="-169682781#0" modes="public"/>
    </person>
    <person id="ped153" depart="2605.14" type="ped_pedestrian">
        <personTrip from="-57011499#3" to="691127618" modes="public"/>
    </person>
    <person id="ped154" depart="2622.17" type="ped_pedestrian">
        <personTrip from="443996534#0" to="57011499#4" modes="public"/>
    </person>
    <person id="ped155" depart="2639.19" type="ped_pedestrian">
        <personTrip from="691127618" to="-357045558#4" modes="public"/>
    </person>
    <person id="ped156" depart="2656.22" type="ped_pedestrian">
        <personTrip from="-361858493" to="-167317172#1" modes="public"/>
    </person>
    <person id="ped157" depart="2673.25" type="ped_pedestrian">
        <personTrip from="357045569#1" to="57011500#4" modes="public"/>
    </person>
    <person id="ped158" depart="2690.27" type="ped_pedestrian">
        <personTrip from="-998268798" to="227736807" modes="public"/>
    </person>
    <person id="ped159" depart="2707.30" type="ped_pedestrian">
        <personTrip from="-227494069#1" to="859732039" modes="public"/>
    </person>
    <person id="ped160" depart="2724.33" type="ped_pedestrian">
        <personTrip from="57011500#0" to="986107127" modes="public"/>
    </person>
    <person id="ped161" depart="2741.35" type="ped_pedestrian">
        <personTrip from="443996534#2" to="57011500#3" modes="public"/>
    </person>
    <person id="ped162" depart="2758.38" type="ped_pedestrian">
        <personTrip from="-117031001#0" to="357045558#3" modes="public"/>
    </person>
    <person id="ped163" depart="2775.41" type="ped_pedestrian">
        <personTrip from="-57011500#2" to="859732039" modes="public"/>
    </person>
    <person id="ped164" depart="2792.44" type="ped_pedestrian">
        <personTrip from="443996534#1" to="57011500#0" modes="public"/>
    </person>
    <person id="ped165" depart="2809.46" type="ped_pedestrian">
        <personTrip from="443996534#2" to="-443996534#1" modes="public"/>
    </person>
    <person id="ped166" depart="2826.49" type="ped_pedestrian">
        <personTrip from="361858493" to="-167317172#1" modes="public"/>
    </person>
    <person id="ped167" depart="2843.52" type="ped_pedestrian">
        <personTrip from="57011500#2" to="57011499#4" modes="public"/>
    </person>
    <person id="ped168" depart="2860.54" type="ped_pedestrian">
        <personTrip from="-357045566#1" to="443996534#3" modes="public"/>
    </person>
    <person id="ped169" depart="2877.57" type="ped_pedestrian">
        <personTrip from="117031001#1" to="-57011499#3" modes="public"/>
    </person>
    <person id="ped170" depart="2894.60" type="ped_pedestrian">
        <personTrip from="443996534#0" to="-357045566#2" modes="public"/>
    </person>
    <person id="ped171" depart="2911.63" type="ped_pedestrian">
        <personTrip from="-117031001#0" to="-357045558#2" modes="public"/>
    </person>
    <person id="ped172" depart="2928.65" type="ped_pedestrian">
        <personTrip from="-57011500#2" to="57011500#0" modes="public"/>
    </person>
    <person id="ped173" depart="2945.68" type="ped_pedestrian">
        <personTrip from="986107126" to="-443996534#3" modes="public"/>
    </person>
    <person id="ped174" depart="2962.71" type="ped_pedestrian">
        <personTrip from="267607730#1" to="-986107129" modes="public"/>
    </person>
    <person id="ped175" depart="2979.73" type="ped_pedestrian">
        <personTrip from="986107128" to="167317172#1" modes="public"/>
    </person>
    <person id="ped176" depart="2996.76" type="ped_pedestrian">
        <personTrip from="868980068" to="-167317172#2" modes="public"/>
    </person>
    <person id="ped177" depart="3013.79" type="ped_pedestrian">
        <personTrip from="986107126" to="-227745825" modes="public"/>
    </person>
    <person id="ped178" depart="3030.81" type="ped_pedestrian">
        <personTrip from="985754351" to="-443996534#1" modes="public"/>
    </person>
    <person id="ped179" depart="3047.84" type="ped_pedestrian">
        <personTrip from="-167317172#1" to="1000675590#1" modes="public"/>
    </person>
    <person id="ped180" depart="3064.87" type="ped_pedestrian">
        <personTrip from="357045558#2" to="-57011499#4" modes="public"/>
    </person>
    <person id="ped181" depart="3081.90" type="ped_pedestrian">
        <personTrip from="227494069#1" to="166219968#2" modes="public"/>
    </person>
    <person id="ped182" depart="3098.92" type="ped_pedestrian">
        <personTrip from="-986107127" to="169682781#0" modes="public"/>
    </person>
    <person id="ped183" depart="3115.95" type="ped_pedestrian">
        <personTrip from="-443996534#0" to="339112712#8" modes="public"/>
    </person>
    <person id="ped184" depart="3132.98" type="ped_pedestrian">
        <personTrip from="-1000675589" to="691127622" modes="public"/>
    </person>
    <person id="ped185" depart="3150.00" type="ped_pedestrian">
        <personTrip from="167317172#2" to="357045558#1" modes="public"/>
    </person>
    <person id="ped186" depart="3167.03" type="ped_pedestrian">
        <personTrip from="357045558#4" to="339112712#3" modes="public"/>
    </person>
    <person id="ped187" depart="3184.06" type="ped_pedestrian">
        <personTrip from="-985754350" to="-166219968#0" modes="public"/>
    </person>
    <person id="ped188" depart="3201.09" type="ped_pedestrian">
        <personTrip from="339112712#1" to="-57011500#2" modes="public"/>
    </person>
    <person id="ped189" depart="3218.11" type="ped_pedestrian">